REMARK  Name = molecules/OWQIUQKMMPDHQQ-UHFFFAOYSA-N.pdb
REMARK                            x       y       z     vdW  Elec       q    Type
REMARK                         _______ _______ _______ _____ _____    ______ ____
ROOT
ATOM      1  C   LIG    1        2.595   1.087  -0.017  0.00  0.00    +0.339 C 
ATOM      2  O   LIG    1        2.476   2.338   0.025  0.00  0.00    -0.245 OA
ENDROOT
BRANCH   1   3
ATOM      3  C   LIG    1        3.914   0.484  -0.174  0.00  0.00    +0.059 A 
ATOM      4  C   LIG    1        4.083  -0.891  -0.207  0.00  0.00    +0.017 A 
ATOM      5  C   LIG    1        5.335  -1.448  -0.358  0.00  0.00    +0.023 A 
ATOM      6  C   LIG    1        6.474  -0.676  -0.482  0.00  0.00    +0.025 A 
ATOM      7  C   LIG    1        6.314   0.699  -0.451  0.00  0.00    +0.023 A 
ATOM      8  C   LIG    1        5.054   1.257  -0.299  0.00  0.00    +0.017 A 
BRANCH   6   9
ATOM      9  N   LIG    1        7.755  -1.278  -0.637  0.00  0.00    -0.358 N 
ATOM     10  H   LIG    1        7.996  -2.242  -0.331  0.00  0.00    +0.142 HD
ATOM     11  H   LIG    1        8.501  -0.713  -1.089  0.00  0.00    +0.142 HD
ENDBRANCH   6   9
ENDBRANCH   1   3
BRANCH   1  12
ATOM     12  O   LIG    1        1.456   0.331   0.089  0.00  0.00    -0.461 OA
BRANCH  12  13
ATOM     13  C   LIG    1        0.203   0.959   0.242  0.00  0.00    +0.240 C 
BRANCH  13  14
ATOM     14  C   LIG    1       -0.905  -0.124   0.320  0.00  0.00    +0.012 C 
ATOM     15  C   LIG    1       -0.577  -1.043   1.450  0.00  0.00    +0.015 C 
ATOM     16  C   LIG    1       -0.869  -0.918  -0.956  0.00  0.00    +0.015 C 
BRANCH  14  17
ATOM     17  C   LIG    1       -2.168   0.627   0.485  0.00  0.00    +0.094 C 
BRANCH  17  18
ATOM     18  N   LIG    1       -3.402  -0.035   0.635  0.00  0.00    -0.302 NA
BRANCH  18  19
ATOM     19  C   LIG    1       -4.425   0.968   1.068  0.00  0.00    +0.081 C 
ATOM     20  C   LIG    1       -5.740   0.300   1.269  0.00  0.00    +0.020 C 
ENDBRANCH  18  19
BRANCH  18  21
ATOM     21  C   LIG    1       -3.946  -0.791  -0.438  0.00  0.00    +0.081 C 
ATOM     22  C   LIG    1       -4.403  -0.027  -1.634  0.00  0.00    +0.020 C 
ENDBRANCH  18  21
ENDBRANCH  17  18
ENDBRANCH  14  17
ENDBRANCH  13  14
ENDBRANCH  12  13
ENDBRANCH   1  12
TORSDOF 9
