REMARK  Name = molecules/OWWVHQUOYSPNNE-UHFFFAOYSA-N.pdb
REMARK                            x       y       z     vdW  Elec       q    Type
REMARK                         _______ _______ _______ _____ _____    ______ ____
ROOT
ATOM      1  C   LIG    1        0.287   0.751  -0.254  0.00  0.00    +0.339 C 
ATOM      2  O   LIG    1       -0.376   0.948  -1.320  0.00  0.00    -0.245 OA
ENDROOT
BRANCH   1   3
ATOM      3  C   LIG    1        1.728   0.587  -0.406  0.00  0.00    +0.059 A 
ATOM      4  C   LIG    1        2.483   0.378   0.713  0.00  0.00    +0.018 A 
ATOM      5  C   LIG    1        3.851   0.217   0.619  0.00  0.00    +0.046 A 
ATOM      6  C   LIG    1        4.494   0.263  -0.614  0.00  0.00    +0.121 A 
ATOM      7  C   LIG    1        3.716   0.477  -1.746  0.00  0.00    +0.046 A 
ATOM      8  C   LIG    1        2.353   0.634  -1.629  0.00  0.00    +0.018 A 
BRANCH   6   9
ATOM      9  O   LIG    1        5.878   0.103  -0.740  0.00  0.00    -0.492 OA
BRANCH   9  10
ATOM     10  C   LIG    1        6.625  -0.109   0.429  0.00  0.00    +0.225 C 
ATOM     11  C   LIG    1        8.105  -0.267   0.127  0.00  0.00    +0.048 C 
ENDBRANCH   9  10
ENDBRANCH   6   9
ENDBRANCH   1   3
BRANCH   1  12
ATOM     12  O   LIG    1       -0.328   0.697   0.977  0.00  0.00    -0.460 OA
BRANCH  12  13
ATOM     13  C   LIG    1       -1.722   0.851   1.137  0.00  0.00    +0.248 C 
BRANCH  13  14
ATOM     14  C   LIG    1       -2.423  -0.228   0.399  0.00  0.00    +0.125 C 
BRANCH  14  15
ATOM     15  N   LIG    1       -3.892  -0.169   0.501  0.00  0.00    -0.300 NA
BRANCH  15  16
ATOM     16  C   LIG    1       -4.361  -1.436   0.045  0.00  0.00    +0.081 C 
ATOM     17  C   LIG    1       -5.826  -1.674   0.134  0.00  0.00    +0.020 C 
ENDBRANCH  15  16
BRANCH  15  18
ATOM     18  C   LIG    1       -4.335   0.977  -0.222  0.00  0.00    +0.081 C 
ATOM     19  C   LIG    1       -5.790   1.258  -0.224  0.00  0.00    +0.020 C 
ENDBRANCH  15  18
ENDBRANCH  14  15
ENDBRANCH  13  14
ENDBRANCH  12  13
ENDBRANCH   1  12
TORSDOF 9
