REMARK  Name = molecules/OWYLAEYXIQKAOL-UHFFFAOYSA-N.pdb
REMARK                            x       y       z     vdW  Elec       q    Type
REMARK                         _______ _______ _______ _____ _____    ______ ____
ROOT
ATOM      1  C   LIG    1       -1.691  -0.610  -0.186  0.00  0.00    +0.101 A 
ATOM      2  C   LIG    1       -1.844  -1.281   1.007  0.00  0.00    +0.138 A 
ATOM      3  C   LIG    1       -3.012  -1.157   1.718  0.00  0.00    +0.092 A 
ATOM      4  C   LIG    1       -4.070  -0.382   1.298  0.00  0.00    +0.127 A 
ATOM      5  C   LIG    1       -3.926   0.294   0.104  0.00  0.00    +0.092 A 
ATOM      6  C   LIG    1       -2.754   0.175  -0.617  0.00  0.00    +0.138 A 
ENDROOT
BRANCH   1   7
ATOM      7  C   LIG    1       -0.512  -0.675  -0.999  0.00  0.00    +0.170 C 
ATOM      8  O   LIG    1       -0.443  -1.576  -1.884  0.00  0.00    -0.292 OA
BRANCH   7   9
ATOM      9  C   LIG    1        0.646   0.246  -0.877  0.00  0.00    +0.081 C 
BRANCH   9  10
ATOM     10  C   LIG    1        1.730  -0.080  -1.873  0.00  0.00    +0.023 C 
BRANCH  10  11
ATOM     11  C   LIG    1        2.906   0.822  -1.781  0.00  0.00    +0.085 C 
BRANCH  11  12
ATOM     12  N   LIG    1        3.579   0.823  -0.517  0.00  0.00    -0.302 NA
ATOM     13  C   LIG    1        3.868  -0.428   0.047  0.00  0.00    +0.084 C 
ATOM     14  C   LIG    1        5.304  -0.415   0.540  0.00  0.00    +0.017 C 
ATOM     15  C   LIG    1        5.761   1.018   0.395  0.00  0.00    +0.017 C 
ATOM     16  C   LIG    1        4.703   1.690  -0.447  0.00  0.00    +0.084 C 
ENDBRANCH  11  12
ENDBRANCH  10  11
ENDBRANCH   9  10
ENDBRANCH   7   9
ENDBRANCH   1   7
BRANCH   4  17
ATOM     17  O   LIG    1       -5.215  -0.315   2.081  0.00  0.00    -0.495 OA
ATOM     18  C   LIG    1       -6.340   0.444   1.741  0.00  0.00    +0.277 C 
ENDBRANCH   4  17
BRANCH   2  19
ATOM     19  O   LIG    1       -0.779  -2.059   1.426  0.00  0.00    -0.494 OA
ATOM     20  C   LIG    1       -0.782  -2.808   2.628  0.00  0.00    +0.277 C 
ENDBRANCH   2  19
BRANCH   6  21
ATOM     21  O   LIG    1       -2.621   0.867  -1.828  0.00  0.00    -0.494 OA
ATOM     22  C   LIG    1       -3.686   1.678  -2.299  0.00  0.00    +0.277 C 
ENDBRANCH   6  21
TORSDOF 8
