REMARK  Name = molecules/OXAUOBQMCDIVPQ-IOXNKQMXSA-N.pdb
REMARK                            x       y       z     vdW  Elec       q    Type
REMARK                         _______ _______ _______ _____ _____    ______ ____
ROOT
ATOM      1  C   LIG    1       -2.487   0.786  -0.060  0.00  0.00    +0.029 C 
ENDROOT
BRANCH   1   2
ATOM      2  C   LIG    1       -3.700   0.345   0.074  0.00  0.00    -0.027 C 
ATOM      3  C   LIG    1       -3.923  -1.029   0.545  0.00  0.00    -0.006 A 
ATOM      4  C   LIG    1       -2.869  -1.725   1.076  0.00  0.00    +0.029 A 
ATOM      5  C   LIG    1       -3.095  -2.987   1.636  0.00  0.00    +0.042 A 
ATOM      6 CL   LIG    1       -1.742  -3.863   2.299  0.00  0.00    -0.084 Cl
ATOM      7  C   LIG    1       -4.345  -3.535   1.667  0.00  0.00    +0.021 A 
ATOM      8  C   LIG    1       -5.387  -2.822   1.137  0.00  0.00    +0.017 A 
ATOM      9  C   LIG    1       -5.200  -1.609   0.591  0.00  0.00    +0.020 A 
ATOM     10  S   LIG    1       -6.616  -0.781  -0.044  0.00  0.00    -0.088 S 
ATOM     11  C   LIG    1       -6.131   0.889  -0.383  0.00  0.00    +0.020 A 
ATOM     12  C   LIG    1       -7.159   1.743  -0.707  0.00  0.00    +0.015 A 
ATOM     13  C   LIG    1       -6.878   3.046  -1.040  0.00  0.00    +0.001 A 
ATOM     14  C   LIG    1       -5.551   3.436  -1.034  0.00  0.00    +0.001 A 
ATOM     15  C   LIG    1       -4.544   2.551  -0.702  0.00  0.00    +0.009 A 
ATOM     16  C   LIG    1       -4.827   1.245  -0.366  0.00  0.00    -0.007 A 
ENDBRANCH   1   2
BRANCH   1  17
ATOM     17  C   LIG    1       -1.218   0.160   0.243  0.00  0.00    +0.024 C 
BRANCH  17  18
ATOM     18  C   LIG    1       -0.183   0.777  -0.844  0.00  0.00    +0.085 C 
BRANCH  18  22
ATOM     19  N   LIG    1        3.494  -0.979   0.159  0.00  0.00    -0.297 NA
ATOM     20  C   LIG    1        2.712  -0.294   1.129  0.00  0.00    +0.100 C 
ATOM     21  C   LIG    1        1.785   0.741   0.548  0.00  0.00    +0.100 C 
ATOM     22  N   LIG    1        1.112   0.282  -0.621  0.00  0.00    -0.300 NA
ATOM     23  C   LIG    1        1.326  -1.101  -0.930  0.00  0.00    +0.100 C 
ATOM     24  C   LIG    1        2.835  -1.305  -1.054  0.00  0.00    +0.100 C 
BRANCH  19  25
ATOM     25  C   LIG    1        4.866  -0.661   0.111  0.00  0.00    +0.125 C 
BRANCH  25  26
ATOM     26  C   LIG    1        5.198   0.714  -0.358  0.00  0.00    +0.247 C 
BRANCH  26  27
ATOM     27  O   LIG    1        6.587   0.942  -0.377  0.00  0.00    -0.464 OA
BRANCH  27  29
ATOM     28  C   LIG    1        8.889   0.556  -1.086  0.00  0.00    +0.136 C 
ATOM     29  C   LIG    1        7.438   0.222  -1.163  0.00  0.00    +0.304 C 
ATOM     30  O   LIG    1        7.033  -0.672  -1.910  0.00  0.00    -0.251 OA
ENDBRANCH  27  29
ENDBRANCH  26  27
ENDBRANCH  25  26
ENDBRANCH  19  25
ENDBRANCH  18  22
ENDBRANCH  17  18
ENDBRANCH   1  17
TORSDOF 8
