REMARK  Name = molecules/OXLKOMYHDYVIDM-UHFFFAOYSA-N.pdb
REMARK                            x       y       z     vdW  Elec       q    Type
REMARK                         _______ _______ _______ _____ _____    ______ ____
ROOT
ATOM      1  C   LIG    1       -2.266  -0.115   0.566  0.00  0.00    -0.007 A 
ATOM      2  C   LIG    1       -1.185   0.074   1.454  0.00  0.00    +0.036 A 
ATOM      3  C   LIG    1        0.122   0.118   1.022  0.00  0.00    +0.091 A 
ATOM      4  N   LIG    1        1.309   0.283   1.651  0.00  0.00    -0.214 NA
ATOM      5  C   LIG    1        2.311   0.247   0.745  0.00  0.00    +0.203 A 
ATOM      6  N   LIG    1        1.734   0.060  -0.433  0.00  0.00    -0.326 N 
ATOM      7  H   LIG    1        2.184  -0.021  -1.374  0.00  0.00    +0.169 HD
ATOM      8  C   LIG    1        0.394  -0.024  -0.310  0.00  0.00    +0.067 A 
ATOM      9  C   LIG    1       -0.635  -0.209  -1.203  0.00  0.00    +0.028 A 
ATOM     10  C   LIG    1       -1.968  -0.254  -0.759  0.00  0.00    +0.009 A 
ENDROOT
BRANCH   5  11
ATOM     11  N   LIG    1        3.696   0.385   1.034  0.00  0.00    -0.221 N 
ATOM     12  H   LIG    1        3.969   0.529   2.051  0.00  0.00    +0.161 HD
ATOM     13  C   LIG    1        4.700   0.337   0.034  0.00  0.00    +0.406 C 
ATOM     14  O   LIG    1        4.470   0.174  -1.170  0.00  0.00    -0.226 OA
BRANCH  13  15
ATOM     15  O   LIG    1        6.034   0.481   0.401  0.00  0.00    -0.453 OA
ATOM     16  C   LIG    1        7.070   0.437  -0.592  0.00  0.00    +0.282 C 
ENDBRANCH  13  15
ENDBRANCH   5  11
BRANCH   1  17
ATOM     17  C   LIG    1       -3.595  -0.145   1.084  0.00  0.00    +0.168 C 
ATOM     18  O   LIG    1       -3.678   0.033   2.382  0.00  0.00    -0.219 OA
BRANCH  17  19
ATOM     19  C   LIG    1       -4.877  -0.338   0.444  0.00  0.00    +0.032 C 
ATOM     20  C   LIG    1       -5.151  -1.129  -0.761  0.00  0.00    +0.007 C 
ATOM     21  C   LIG    1       -5.203   0.333  -0.902  0.00  0.00    +0.007 C 
ENDBRANCH  17  19
ENDBRANCH   1  17
TORSDOF 4
