REMARK  Name = molecules/OYPPVKRFBIWMSX-SXGWCWSVSA-N.pdb
REMARK                            x       y       z     vdW  Elec       q    Type
REMARK                         _______ _______ _______ _____ _____    ______ ____
ROOT
ATOM      1  C   LIG    1       -0.513   0.193  -0.456  0.00  0.00    -0.012 C 
ATOM      2  C   LIG    1        0.649   0.626  -0.879  0.00  0.00    -0.003 C 
ENDROOT
BRANCH   1   3
ATOM      3  C   LIG    1       -1.639   1.172  -0.278  0.00  0.00    -0.017 A 
ATOM      4  C   LIG    1       -2.696   0.932   0.545  0.00  0.00    +0.009 A 
ATOM      5  C   LIG    1       -3.672   1.901   0.740  0.00  0.00    +0.016 A 
ATOM      6  C   LIG    1       -3.571   3.108   0.100  0.00  0.00    +0.018 A 
ATOM      7 BR   LIG    1       -4.916   4.442   0.369  0.00  0.00    -0.050 Br
ATOM      8  C   LIG    1       -2.514   3.348  -0.720  0.00  0.00    +0.016 A 
ATOM      9  C   LIG    1       -1.525   2.373  -0.922  0.00  0.00    +0.009 A 
ENDBRANCH   1   3
BRANCH   1  10
ATOM     10  C   LIG    1       -0.804  -1.163  -0.019  0.00  0.00    +0.001 A 
ATOM     11  C   LIG    1        0.093  -2.009   0.578  0.00  0.00    +0.011 A 
ATOM     12  C   LIG    1       -0.221  -3.343   0.856  0.00  0.00    +0.020 A 
ATOM     13  C   LIG    1       -1.460  -3.855   0.534  0.00  0.00    +0.111 A 
ATOM     14  N   LIG    1       -2.340  -3.028  -0.050  0.00  0.00    -0.263 NA
ATOM     15  C   LIG    1       -2.043  -1.746  -0.320  0.00  0.00    +0.119 A 
ENDBRANCH   1  10
BRANCH   2  16
ATOM     16  C   LIG    1        1.792  -0.235  -1.096  0.00  0.00    +0.111 C 
BRANCH  16  17
ATOM     17  N   LIG    1        2.950  -0.042  -0.327  0.00  0.00    -0.305 NA
ATOM     18  C   LIG    1        3.751  -1.201  -0.075  0.00  0.00    +0.104 C 
ATOM     19  C   LIG    1        3.691   1.156  -0.547  0.00  0.00    +0.104 C 
ENDBRANCH  16  17
ENDBRANCH   2  16
TORSDOF 4
