REMARK  Name = molecules/OYSKUZDIHNKWLV-PRUAPSLNSA-N.pdb
REMARK                            x       y       z     vdW  Elec       q    Type
REMARK                         _______ _______ _______ _____ _____    ______ ____
ROOT
ATOM      1  C   LIG    1       -3.919  -0.087  -1.875  0.00  0.00    +0.172 C 
ATOM      2  O   LIG    1       -3.720  -1.467  -1.889  0.00  0.00    -0.355 OA
ATOM      3  C   LIG    1       -2.406  -1.663  -1.406  0.00  0.00    +0.219 C 
ATOM      4  C   LIG    1       -1.364  -1.228  -2.432  0.00  0.00    +0.246 C 
ATOM      5  C   LIG    1       -2.138  -0.565  -3.552  0.00  0.00    +0.189 C 
ATOM      6  C   LIG    1       -2.972   0.519  -2.852  0.00  0.00    +0.177 C 
ENDROOT
BRANCH   3   7
ATOM      7  S   LIG    1       -2.079  -0.797   0.126  0.00  0.00    -0.129 S 
ATOM      8  C   LIG    1       -3.047  -1.444   1.515  0.00  0.00    +0.087 C 
ENDBRANCH   3   7
BRANCH   6   9
ATOM      9  O   LIG    1       -3.554   1.384  -3.749  0.00  0.00    -0.386 OA
ATOM     10  H   LIG    1       -3.097   2.256  -3.854  0.00  0.00    +0.210 HD
ENDBRANCH   6   9
BRANCH   5  11
ATOM     11  O   LIG    1       -2.943  -1.534  -4.116  0.00  0.00    -0.385 OA
ATOM     12  H   LIG    1       -2.368  -2.209  -4.515  0.00  0.00    +0.210 HD
ENDBRANCH   5  11
BRANCH   1  13
ATOM     13  C   LIG    1       -5.349   0.306  -2.057  0.00  0.00    +0.122 C 
BRANCH  13  14
ATOM     14  N   LIG    1       -6.109  -0.288  -0.971  0.00  0.00    -0.307 N 
ATOM     15  C   LIG    1       -6.735   0.429   0.061  0.00  0.00    +0.231 C 
ATOM     16  O   LIG    1       -6.639   1.682   0.065  0.00  0.00    -0.274 OA
ATOM     17  H   LIG    1       -6.161  -1.350  -1.017  0.00  0.00    +0.149 HD
BRANCH  15  18
ATOM     18  C   LIG    1       -7.479  -0.328   1.099  0.00  0.00    +0.143 C 
ATOM     19  N   LIG    1       -8.056   0.543   2.102  0.00  0.00    -0.294 NA
ATOM     20  C   LIG    1       -7.110   1.434   2.708  0.00  0.00    +0.105 C 
ATOM     21  C   LIG    1       -9.165   1.220   1.453  0.00  0.00    +0.088 C 
ATOM     22  C   LIG    1       -9.495   0.437   0.220  0.00  0.00    +0.005 C 
ATOM     23  C   LIG    1       -8.754  -0.843   0.410  0.00  0.00    +0.033 C 
BRANCH  22  24
ATOM     24  C   LIG    1      -10.969   0.268  -0.013  0.00  0.00    +0.004 C 
BRANCH  24  25
ATOM     25  C   LIG    1      -11.689  -0.411   1.100  0.00  0.00    -0.003 C 
ATOM     26  C   LIG    1      -13.167  -0.492   0.690  0.00  0.00    +0.004 C 
ENDBRANCH  24  25
ENDBRANCH  22  24
ENDBRANCH  15  18
ENDBRANCH  13  14
BRANCH  13  27
ATOM     27  C   LIG    1       -5.985  -0.080  -3.333  0.00  0.00    +0.100 C 
ATOM     28  C   LIG    1       -7.423   0.467  -3.288  0.00  0.00    +0.026 C 
ATOM     29 CL   LIG    1       -6.192  -1.866  -3.394  0.00  0.00    -0.120 Cl
ENDBRANCH  13  27
ENDBRANCH   1  13
BRANCH   4  30
ATOM     30  O   LIG    1       -0.425  -0.336  -1.870  0.00  0.00    -0.455 OA
BRANCH  30  31
ATOM     31  C   LIG    1        0.891  -0.709  -1.768  0.00  0.00    +0.308 C 
ATOM     32  O   LIG    1        1.298  -1.820  -2.150  0.00  0.00    -0.251 OA
BRANCH  31  33
ATOM     33  C   LIG    1        1.911   0.227  -1.180  0.00  0.00    +0.120 C 
BRANCH  33  34
ATOM     34  C   LIG    1        2.568  -0.488  -0.034  0.00  0.00    +0.011 C 
BRANCH  34  35
ATOM     35  C   LIG    1        3.629   0.326   0.661  0.00  0.00    +0.001 C 
BRANCH  35  36
ATOM     36  C   LIG    1        4.757   0.695  -0.260  0.00  0.00    +0.000 C 
BRANCH  36  37
ATOM     37  C   LIG    1        5.811   1.514   0.437  0.00  0.00    +0.000 C 
BRANCH  37  38
ATOM     38  C   LIG    1        6.432   0.825   1.617  0.00  0.00    +0.000 C 
BRANCH  38  39
ATOM     39  C   LIG    1        7.093  -0.450   1.203  0.00  0.00    -0.000 C 
BRANCH  39  40
ATOM     40  C   LIG    1        7.736  -1.192   2.357  0.00  0.00    -0.000 C 
BRANCH  40  41
ATOM     41  C   LIG    1        8.780  -0.323   2.981  0.00  0.00    -0.000 C 
BRANCH  41  42
ATOM     42  C   LIG    1        9.886   0.081   2.038  0.00  0.00    -0.000 C 
BRANCH  42  43
ATOM     43  C   LIG    1       10.585  -1.148   1.522  0.00  0.00    -0.000 C 
BRANCH  43  44
ATOM     44  C   LIG    1       11.682  -0.724   0.584  0.00  0.00    -0.000 C 
BRANCH  44  45
ATOM     45  C   LIG    1       12.722   0.150   1.225  0.00  0.00    -0.000 C 
BRANCH  45  46
ATOM     46  C   LIG    1       13.759   0.492   0.154  0.00  0.00    -0.003 C 
ATOM     47  C   LIG    1       14.822   1.371   0.769  0.00  0.00    +0.004 C 
ENDBRANCH  45  46
ENDBRANCH  44  45
ENDBRANCH  43  44
ENDBRANCH  42  43
ENDBRANCH  41  42
ENDBRANCH  40  41
ENDBRANCH  39  40
ENDBRANCH  38  39
ENDBRANCH  37  38
ENDBRANCH  36  37
ENDBRANCH  35  36
ENDBRANCH  34  35
ENDBRANCH  33  34
ENDBRANCH  31  33
ENDBRANCH  30  31
ENDBRANCH   4  30
TORSDOF 25
