REMARK  Name = molecules/OYTKINVCDFNREN-UHFFFAOYSA-N.pdb
REMARK                            x       y       z     vdW  Elec       q    Type
REMARK                         _______ _______ _______ _____ _____    ______ ____
ROOT
ATOM      1  C   LIG    1       -0.237   0.605   0.043  0.00  0.00    +0.048 A 
ATOM      2  C   LIG    1       -1.585   0.310   0.025  0.00  0.00    +0.044 A 
ATOM      3  C   LIG    1       -2.045  -0.988  -0.070  0.00  0.00    +0.112 A 
ATOM      4  N   LIG    1       -1.113  -1.955  -0.145  0.00  0.00    -0.261 NA
ATOM      5  C   LIG    1        0.217  -1.693  -0.131  0.00  0.00    +0.135 A 
ATOM      6  C   LIG    1        0.703  -0.403  -0.036  0.00  0.00    +0.064 A 
ENDROOT
BRANCH   1   7
ATOM      7  N   LIG    1        0.239   1.942   0.141  0.00  0.00    -0.356 N 
ATOM      8  H   LIG    1        1.124   2.192   0.657  0.00  0.00    +0.142 HD
ATOM      9  H   LIG    1       -0.262   2.751  -0.294  0.00  0.00    +0.142 HD
ENDBRANCH   1   7
BRANCH   6  10
ATOM     10  N   LIG    1        2.107  -0.131  -0.021  0.00  0.00    -0.355 N 
ATOM     11  H   LIG    1        2.702  -0.344   0.835  0.00  0.00    +0.142 HD
ATOM     12  H   LIG    1        2.624   0.279  -0.818  0.00  0.00    +0.142 HD
ENDBRANCH   6  10
TORSDOF 2
