REMARK  Name = molecules/OYYDSUSKLWTMMQ-JKHIJQBDSA-N.pdb
REMARK                            x       y       z     vdW  Elec       q    Type
REMARK                         _______ _______ _______ _____ _____    ______ ____
ROOT
ATOM      1  C   LIG    1        1.267   0.614   1.545  0.00  0.00    +0.349 C 
ATOM      2  O   LIG    1        0.679   1.081   2.532  0.00  0.00    -0.247 OA
ENDROOT
BRANCH   1   3
ATOM      3  O   LIG    1        0.541   0.210   0.467  0.00  0.00    -0.459 OA
BRANCH   3   4
ATOM      4  C   LIG    1       -0.865   0.270   0.351  0.00  0.00    +0.174 C 
ATOM      5  C   LIG    1       -1.437  -1.119   0.330  0.00  0.00    +0.030 C 
ATOM      6  C   LIG    1       -2.822  -1.239  -0.177  0.00  0.00    -0.062 C 
ATOM      7  N   LIG    1       -3.462   0.004  -0.527  0.00  0.00    +0.384 N 
ATOM      8  C   LIG    1       -3.791   0.852   0.554  0.00  0.00    -0.074 C 
ATOM      9  C   LIG    1       -5.293   1.151   0.469  0.00  0.00    -0.020 C 
ATOM     10  C   LIG    1       -5.618   0.832  -0.975  0.00  0.00    -0.020 C 
ATOM     11  C   LIG    1       -4.695  -0.348  -1.224  0.00  0.00    -0.074 C 
ATOM     12  C   LIG    1       -2.544   0.547  -1.495  0.00  0.00    -0.062 C 
ATOM     13  C   LIG    1       -2.257  -0.655  -2.371  0.00  0.00    -0.016 C 
ATOM     14  C   LIG    1       -2.735  -1.878  -1.575  0.00  0.00    -0.016 C 
ATOM     15  C   LIG    1       -1.310   1.087  -0.825  0.00  0.00    +0.030 C 
ENDBRANCH   3   4
ENDBRANCH   1   3
BRANCH   1  16
ATOM     16  C   LIG    1        2.741   0.488   1.516  0.00  0.00    +0.213 C 
BRANCH  16  17
ATOM     17  C   LIG    1        3.198  -0.912   1.308  0.00  0.00    -0.001 A 
ATOM     18  C   LIG    1        3.951  -1.591   2.242  0.00  0.00    +0.007 A 
ATOM     19  C   LIG    1        4.386  -2.890   2.060  0.00  0.00    +0.000 A 
ATOM     20  C   LIG    1        4.056  -3.538   0.897  0.00  0.00    +0.000 A 
ATOM     21  C   LIG    1        3.299  -2.864  -0.051  0.00  0.00    +0.000 A 
ATOM     22  C   LIG    1        2.863  -1.568   0.127  0.00  0.00    +0.007 A 
ENDBRANCH  16  17
BRANCH  16  23
ATOM     23  C   LIG    1        3.392   1.326   0.482  0.00  0.00    -0.001 A 
ATOM     24  C   LIG    1        4.771   1.352   0.479  0.00  0.00    +0.007 A 
ATOM     25  C   LIG    1        5.502   2.088  -0.423  0.00  0.00    +0.000 A 
ATOM     26  C   LIG    1        4.817   2.829  -1.361  0.00  0.00    +0.000 A 
ATOM     27  C   LIG    1        3.440   2.810  -1.367  0.00  0.00    +0.000 A 
ATOM     28  C   LIG    1        2.717   2.065  -0.454  0.00  0.00    +0.007 A 
ENDBRANCH  16  23
BRANCH  16  29
ATOM     29  O   LIG    1        3.306   0.922   2.740  0.00  0.00    -0.370 OA
ATOM     30  H   LIG    1        2.808   0.461   3.450  0.00  0.00    +0.212 HD
ENDBRANCH  16  29
ENDBRANCH   1  16
TORSDOF 6
