REMARK  Name = molecules/OZKQTMYKYQGCME-UHFFFAOYSA-N.pdb
REMARK                            x       y       z     vdW  Elec       q    Type
REMARK                         _______ _______ _______ _____ _____    ______ ____
ROOT
ATOM      1  C   LIG    1        0.144  -0.291  -0.842  0.00  0.00    +0.160 C 
ATOM      2  C   LIG    1       -0.458  -0.279   0.511  0.00  0.00    +0.255 C 
ATOM      3  O   LIG    1        0.133  -0.733   1.522  0.00  0.00    -0.272 OA
ATOM      4  N   LIG    1       -1.754   0.302   0.493  0.00  0.00    -0.180 N 
ATOM      5  N   LIG    1       -2.058   0.566  -0.843  0.00  0.00    -0.180 N 
ATOM      6  C   LIG    1       -1.010   0.179  -1.685  0.00  0.00    +0.255 C 
ATOM      7  O   LIG    1       -0.961   0.192  -2.959  0.00  0.00    -0.272 OA
ENDROOT
BRANCH   4   8
ATOM      8  C   LIG    1       -2.579   0.557   1.648  0.00  0.00    +0.057 A 
ATOM      9  C   LIG    1       -2.768  -0.455   2.575  0.00  0.00    +0.025 A 
ATOM     10  C   LIG    1       -3.551  -0.243   3.691  0.00  0.00    +0.002 A 
ATOM     11  C   LIG    1       -4.172   0.977   3.924  0.00  0.00    +0.000 A 
ATOM     12  C   LIG    1       -3.974   1.972   2.993  0.00  0.00    +0.002 A 
ATOM     13  C   LIG    1       -3.189   1.775   1.864  0.00  0.00    +0.025 A 
ENDBRANCH   4   8
BRANCH   5  14
ATOM     14  C   LIG    1       -3.276   1.154  -1.282  0.00  0.00    +0.057 A 
ATOM     15  C   LIG    1       -4.491   0.644  -0.886  0.00  0.00    +0.025 A 
ATOM     16  C   LIG    1       -5.658   1.237  -1.331  0.00  0.00    +0.002 A 
ATOM     17  C   LIG    1       -5.644   2.337  -2.168  0.00  0.00    +0.000 A 
ATOM     18  C   LIG    1       -4.421   2.833  -2.555  0.00  0.00    +0.002 A 
ATOM     19  C   LIG    1       -3.254   2.247  -2.116  0.00  0.00    +0.025 A 
ENDBRANCH   5  14
BRANCH   1  20
ATOM     20  C   LIG    1        1.235   0.703  -1.015  0.00  0.00    +0.258 C 
BRANCH  20  21
ATOM     21  O   LIG    1        2.429   0.415  -0.357  0.00  0.00    -0.460 OA
BRANCH  21  22
ATOM     22  C   LIG    1        3.559   1.207  -0.395  0.00  0.00    +0.339 C 
ATOM     23  O   LIG    1        3.485   2.258  -1.076  0.00  0.00    -0.245 OA
BRANCH  22  24
ATOM     24  C   LIG    1        4.795   0.893   0.295  0.00  0.00    +0.059 A 
ATOM     25  C   LIG    1        4.956  -0.239   1.064  0.00  0.00    +0.016 A 
ATOM     26  C   LIG    1        6.140  -0.518   1.711  0.00  0.00    +0.021 A 
ATOM     27  C   LIG    1        7.187   0.371   1.577  0.00  0.00    +0.041 A 
ATOM     28 CL   LIG    1        8.728   0.076   2.378  0.00  0.00    -0.084 Cl
ATOM     29  C   LIG    1        7.065   1.519   0.814  0.00  0.00    +0.021 A 
ATOM     30  C   LIG    1        5.857   1.756   0.183  0.00  0.00    +0.016 A 
ENDBRANCH  22  24
ENDBRANCH  21  22
ENDBRANCH  20  21
ENDBRANCH   1  20
BRANCH   1  31
ATOM     31  C   LIG    1        0.477  -1.656  -1.327  0.00  0.00    +0.029 C 
BRANCH  31  32
ATOM     32  C   LIG    1        1.638  -2.329  -0.688  0.00  0.00    +0.001 C 
BRANCH  32  33
ATOM     33  C   LIG    1        1.760  -3.712  -1.353  0.00  0.00    -0.003 C 
ATOM     34  C   LIG    1        0.494  -4.495  -1.127  0.00  0.00    +0.004 C 
ENDBRANCH  32  33
ENDBRANCH  31  32
ENDBRANCH   1  31
TORSDOF 9
