REMARK  Name = molecules/OZOMQRBLCMDCEG-VIZOYTHASA-N.pdb
REMARK                            x       y       z     vdW  Elec       q    Type
REMARK                         _______ _______ _______ _____ _____    ______ ____
ROOT
ATOM      1  C   LIG    1       -0.850   1.042  -0.332  0.00  0.00    +0.148 A 
ATOM      2  O   LIG    1        0.165   0.299  -0.016  0.00  0.00    -0.454 OA
ATOM      3  C   LIG    1        1.303   0.841  -0.348  0.00  0.00    +0.136 A 
ATOM      4  C   LIG    1        1.056   2.064  -0.945  0.00  0.00    +0.050 A 
ATOM      5  C   LIG    1       -0.337   2.176  -0.925  0.00  0.00    +0.051 A 
ENDROOT
BRANCH   3   6
ATOM      6  C   LIG    1        2.659   0.317  -0.160  0.00  0.00    +0.017 A 
ATOM      7  C   LIG    1        2.873  -0.915   0.443  0.00  0.00    +0.014 A 
ATOM      8  C   LIG    1        4.148  -1.407   0.619  0.00  0.00    +0.033 A 
ATOM      9  C   LIG    1        5.258  -0.705   0.208  0.00  0.00    +0.126 A 
ATOM     10  C   LIG    1        5.057   0.525  -0.395  0.00  0.00    +0.033 A 
ATOM     11  C   LIG    1        3.777   1.002  -0.563  0.00  0.00    +0.014 A 
BRANCH   9  12
ATOM     12  N   LIG    1        6.585  -1.224   0.395  0.00  0.00    +0.056 N 
ATOM     13  O   LIG    1        6.746  -2.446   0.996  0.00  0.00    -0.126 OA
ATOM     14  O   LIG    1        7.575  -0.590   0.025  0.00  0.00    -0.126 OA
ENDBRANCH   9  12
ENDBRANCH   3   6
BRANCH   1  15
ATOM     15  C   LIG    1       -2.278   0.810  -0.138  0.00  0.00    +0.176 C 
ATOM     16  N   LIG    1       -2.728  -0.267   0.424  0.00  0.00    -0.180 NA
BRANCH  16  17
ATOM     17  N   LIG    1       -4.097  -0.477   0.603  0.00  0.00    -0.168 N 
ATOM     18  C   LIG    1       -4.803  -1.186   1.615  0.00  0.00    +0.328 C 
ATOM     19  O   LIG    1       -4.310  -1.421   2.759  0.00  0.00    -0.250 OA
ATOM     20  N   LIG    1       -6.094  -1.558   1.122  0.00  0.00    -0.237 N 
ATOM     21  H   LIG    1       -6.834  -2.086   1.635  0.00  0.00    +0.159 HD
ATOM     22  C   LIG    1       -6.147  -1.058  -0.207  0.00  0.00    +0.240 C 
ATOM     23  O   LIG    1       -6.913  -1.468  -1.138  0.00  0.00    -0.274 OA
ATOM     24  C   LIG    1       -5.135   0.026  -0.276  0.00  0.00    +0.232 C 
ENDBRANCH  16  17
ENDBRANCH   1  15
TORSDOF 4
