REMARK  Name = molecules/OZVBMTJYIDMWIL-AYFBDAFISA-N.pdb
REMARK                            x       y       z     vdW  Elec       q    Type
REMARK                         _______ _______ _______ _____ _____    ______ ____
ROOT
ATOM      1  C   LIG    1        0.385  -0.777   0.006  0.00  0.00    +0.224 C 
ATOM      2  N   LIG    1       -0.209   0.428  -0.356  0.00  0.00    -0.279 N 
ATOM      3  H   LIG    1        0.079   1.281   0.225  0.00  0.00    +0.152 HD
ATOM      4  O   LIG    1        0.117  -1.834  -0.606  0.00  0.00    -0.275 OA
ENDROOT
BRANCH   1  11
ATOM      5  C   LIG    1        6.068   0.052   0.676  0.00  0.00    +0.011 A 
ATOM      6  C   LIG    1        6.366  -1.269   0.903  0.00  0.00    -0.006 A 
ATOM      7  C   LIG    1        5.285  -2.278   1.027  0.00  0.00    +0.062 C 
ATOM      8  C   LIG    1        4.037  -1.786   0.312  0.00  0.00    +0.091 C 
ATOM      9  C   LIG    1        3.688  -0.388   0.644  0.00  0.00    -0.025 C 
ATOM     10  C   LIG    1        2.500   0.053   1.003  0.00  0.00    -0.007 C 
ATOM     11  C   LIG    1        1.350  -0.876   1.117  0.00  0.00    +0.112 C 
ATOM     12  C   LIG    1        1.885  -2.245   1.352  0.00  0.00    +0.101 C 
ATOM     13  N   LIG    1        2.933  -2.644   0.496  0.00  0.00    -0.297 NA
ATOM     14  C   LIG    1        2.589  -3.434  -0.639  0.00  0.00    +0.105 C 
ATOM     15  C   LIG    1        7.743  -1.328   0.972  0.00  0.00    +0.087 A 
ATOM     16 BR   LIG    1        8.832  -2.857   1.266  0.00  0.00    -0.031 Br
ATOM     17  N   LIG    1        8.272  -0.068   0.791  0.00  0.00    -0.349 N 
ATOM     18  H   LIG    1        9.256   0.227   0.786  0.00  0.00    +0.166 HD
ATOM     19  C   LIG    1        7.228   0.777   0.609  0.00  0.00    +0.048 A 
ATOM     20  C   LIG    1        7.043   2.139   0.386  0.00  0.00    +0.026 A 
ATOM     21  C   LIG    1        5.752   2.682   0.246  0.00  0.00    +0.003 A 
ATOM     22  C   LIG    1        4.605   1.912   0.320  0.00  0.00    +0.009 A 
ATOM     23  C   LIG    1        4.815   0.569   0.541  0.00  0.00    -0.011 A 
ENDBRANCH   1  11
BRANCH   2  24
ATOM     24  C   LIG    1       -1.147   0.643  -1.409  0.00  0.00    +0.220 C 
ATOM     25  O   LIG    1       -1.737   1.932  -1.235  0.00  0.00    -0.298 OA
ATOM     26  C   LIG    1       -2.692   1.802  -0.250  0.00  0.00    +0.269 C 
ATOM     27  N   LIG    1       -3.170   0.408  -0.327  0.00  0.00    -0.233 N 
ATOM     28  C   LIG    1       -4.248  -0.027   0.510  0.00  0.00    +0.167 C 
ATOM     29  C   LIG    1       -4.844   1.160   1.193  0.00  0.00    +0.237 C 
ATOM     30  O   LIG    1       -5.313   1.071   2.363  0.00  0.00    -0.274 OA
ATOM     31  N   LIG    1       -4.881   2.394   0.514  0.00  0.00    -0.290 N 
ATOM     32  C   LIG    1       -5.722   3.575   0.659  0.00  0.00    +0.108 C 
ATOM     33  C   LIG    1       -4.954   4.672   0.008  0.00  0.00    +0.021 C 
ATOM     34  C   LIG    1       -3.677   4.109  -0.561  0.00  0.00    +0.031 C 
ATOM     35  C   LIG    1       -3.926   2.633  -0.555  0.00  0.00    +0.156 C 
ATOM     36  C   LIG    1       -2.370  -0.205  -1.318  0.00  0.00    +0.271 C 
ATOM     37  O   LIG    1       -2.610  -1.236  -1.990  0.00  0.00    -0.270 OA
BRANCH  24  38
ATOM     38  C   LIG    1       -0.514   0.687  -2.747  0.00  0.00    +0.043 C 
ATOM     39  C   LIG    1        0.275  -0.493  -3.183  0.00  0.00    +0.012 C 
ATOM     40  C   LIG    1       -1.579   0.928  -3.835  0.00  0.00    +0.012 C 
ENDBRANCH  24  38
BRANCH  26  41
ATOM     41  O   LIG    1       -2.233   2.010   1.031  0.00  0.00    -0.348 OA
ATOM     42  H   LIG    1       -2.465   2.906   1.364  0.00  0.00    +0.214 HD
ENDBRANCH  26  41
BRANCH  28  43
ATOM     43  C   LIG    1       -3.863  -1.023   1.571  0.00  0.00    +0.035 C 
BRANCH  43  44
ATOM     44  C   LIG    1       -3.287  -2.300   1.067  0.00  0.00    -0.015 C 
ATOM     45  C   LIG    1       -2.977  -3.174   2.286  0.00  0.00    +0.007 C 
ATOM     46  C   LIG    1       -4.207  -3.065   0.166  0.00  0.00    +0.007 C 
ENDBRANCH  43  44
ENDBRANCH  28  43
ENDBRANCH   2  24
TORSDOF 6
