REMARK  Name = molecules/OZWKMVRBQXNZKK-NSHDSACASA-N.pdb
REMARK                            x       y       z     vdW  Elec       q    Type
REMARK                         _______ _______ _______ _____ _____    ______ ____
ROOT
ATOM      1  C   LIG    1       -0.076   0.404  -0.617  0.00  0.00    +0.062 A 
ATOM      2  C   LIG    1        0.101   1.722  -0.368  0.00  0.00    +0.026 A 
ATOM      3  C   LIG    1        1.480   1.923  -0.207  0.00  0.00    +0.024 A 
ATOM      4  C   LIG    1        2.055   0.690  -0.375  0.00  0.00    +0.033 A 
ATOM      5  C   LIG    1        3.441   0.116  -0.340  0.00  0.00    +0.146 C 
ATOM      6  C   LIG    1        3.170  -1.372  -0.418  0.00  0.00    +0.042 C 
ATOM      7  C   LIG    1        1.717  -1.528  -0.820  0.00  0.00    +0.123 C 
ATOM      8  N   LIG    1        1.148  -0.212  -0.618  0.00  0.00    -0.344 N 
ENDROOT
BRANCH   1   9
ATOM      9  C   LIG    1       -1.325  -0.296  -0.869  0.00  0.00    +0.210 C 
ATOM     10  O   LIG    1       -1.281  -1.230  -1.784  0.00  0.00    -0.212 OA
BRANCH   9  11
ATOM     11  C   LIG    1       -2.604  -0.118  -0.246  0.00  0.00    -0.003 A 
ATOM     12  C   LIG    1       -3.099   1.014   0.344  0.00  0.00    +0.007 A 
ATOM     13  C   LIG    1       -4.350   1.086   0.972  0.00  0.00    +0.000 A 
ATOM     14  C   LIG    1       -5.155  -0.028   1.016  0.00  0.00    +0.000 A 
ATOM     15  C   LIG    1       -4.667  -1.172   0.426  0.00  0.00    +0.000 A 
ATOM     16  C   LIG    1       -3.455  -1.255  -0.187  0.00  0.00    +0.007 A 
ENDBRANCH   9  11
ENDBRANCH   1   9
BRANCH   5  17
ATOM     17  C   LIG    1        4.103   0.472   0.942  0.00  0.00    +0.314 C 
ATOM     18  O   LIG    1        3.447   1.157   1.775  0.00  0.00    -0.250 OA
BRANCH  17  19
ATOM     19  O   LIG    1        5.391   0.102   1.278  0.00  0.00    -0.480 OA
ATOM     20  H   LIG    1        6.117   0.823   1.200  0.00  0.00    +0.295 HD
ENDBRANCH  17  19
ENDBRANCH   5  17
TORSDOF 4
