REMARK  Name = molecules/OZYUPQUCAUTOBP-QXAKKESOSA-N.pdb
REMARK                            x       y       z     vdW  Elec       q    Type
REMARK                         _______ _______ _______ _____ _____    ______ ____
ROOT
ATOM      1  N   LIG    1        2.136   0.768   0.406  0.00  0.00    -0.295 NA
ATOM      2  C   LIG    1        1.843  -0.383   1.253  0.00  0.00    +0.086 C 
ATOM      3  C   LIG    1        0.387  -0.514   1.611  0.00  0.00    +0.027 C 
ATOM      4  C   LIG    1       -0.481  -0.768   0.401  0.00  0.00    +0.002 C 
ATOM      5  C   LIG    1       -1.572   0.214   0.434  0.00  0.00    -0.034 A 
ATOM      6  C   LIG    1       -2.882  -0.100   0.720  0.00  0.00    +0.049 A 
ATOM      7  C   LIG    1       -3.888   0.851   0.743  0.00  0.00    +0.117 A 
ATOM      8  C   LIG    1       -3.532   2.144   0.465  0.00  0.00    +0.045 A 
ATOM      9  C   LIG    1       -2.236   2.518   0.171  0.00  0.00    +0.007 A 
ATOM     10  C   LIG    1       -1.251   1.530   0.159  0.00  0.00    -0.042 A 
ATOM     11  C   LIG    1        0.108   2.019  -0.163  0.00  0.00    +0.054 C 
ATOM     12  C   LIG    1       -0.875  -2.189   0.274  0.00  0.00    +0.012 C 
ATOM     13  C   LIG    1       -1.398  -2.596  -1.060  0.00  0.00    +0.001 C 
ATOM     14  C   LIG    1       -0.786  -1.900  -2.225  0.00  0.00    +0.000 C 
ATOM     15  C   LIG    1       -0.514  -0.430  -1.990  0.00  0.00    +0.006 C 
ATOM     16  C   LIG    1        0.415  -0.386  -0.792  0.00  0.00    +0.017 C 
ATOM     17  C   LIG    1        1.045   0.927  -0.576  0.00  0.00    +0.065 C 
ENDROOT
BRANCH   7  18
ATOM     18  O   LIG    1       -5.217   0.486   1.042  0.00  0.00    -0.507 OA
ATOM     19  H   LIG    1       -5.897   1.224   1.040  0.00  0.00    +0.292 HD
ENDBRANCH   7  18
BRANCH   1  20
ATOM     20  C   LIG    1        3.272   0.316  -0.414  0.00  0.00    +0.111 C 
BRANCH  20  21
ATOM     21  C   LIG    1        4.571   0.423   0.273  0.00  0.00    -0.019 C 
ATOM     22  C   LIG    1        4.661   1.006   1.476  0.00  0.00    +0.005 C 
ENDBRANCH  20  21
ENDBRANCH   1  20
TORSDOF 3
