REMARK  Name = molecules/OZZAYJQNMKMUSD-DMISRAGPSA-N.pdb
REMARK                            x       y       z     vdW  Elec       q    Type
REMARK                         _______ _______ _______ _____ _____    ______ ____
ROOT
ATOM      1  C   LIG    1        0.656  -1.117   0.997  0.00  0.00    +0.016 C 
ATOM      2  C   LIG    1        0.468  -0.417  -0.333  0.00  0.00    -0.008 C 
ATOM      3  C   LIG    1        1.138   0.885  -0.284  0.00  0.00    -0.064 C 
ATOM      4  C   LIG    1        2.576   0.975   0.036  0.00  0.00    +0.075 C 
ATOM      5  C   LIG    1        3.320   0.051  -0.891  0.00  0.00    +0.180 C 
ATOM      6  C   LIG    1        2.710  -1.309  -1.018  0.00  0.00    +0.046 C 
ATOM      7  C   LIG    1        0.493   2.006  -0.522  0.00  0.00    -0.027 C 
ATOM      8  C   LIG    1       -0.953   2.106  -0.861  0.00  0.00    +0.031 C 
ATOM      9  C   LIG    1       -1.638   0.931  -0.254  0.00  0.00    +0.000 C 
ATOM     10  C   LIG    1       -3.045   0.749  -0.606  0.00  0.00    -0.001 C 
ATOM     11  C   LIG    1       -3.641  -0.157   0.486  0.00  0.00    -0.019 C 
ATOM     12  C   LIG    1       -3.777   0.582   1.799  0.00  0.00    +0.012 C 
ATOM     13  C   LIG    1       -2.864  -1.423   0.572  0.00  0.00    +0.008 C 
ATOM     14  C   LIG    1       -1.761  -1.575  -0.421  0.00  0.00    +0.005 C 
ATOM     15  C   LIG    1       -5.018  -0.287  -0.087  0.00  0.00    +0.061 C 
ATOM     16  C   LIG    1       -5.327   1.159  -0.458  0.00  0.00    +0.012 C 
ATOM     17  C   LIG    1       -3.977   1.873  -0.540  0.00  0.00    +0.005 C 
ATOM     18  C   LIG    1       -0.977  -0.372  -0.754  0.00  0.00    +0.003 C 
ATOM     19  C   LIG    1        1.244  -1.273  -1.346  0.00  0.00    +0.015 C 
ENDROOT
BRANCH  15  20
ATOM     20  C   LIG    1       -6.028  -0.781   0.860  0.00  0.00    +0.134 C 
ATOM     21  O   LIG    1       -5.752  -1.059   2.005  0.00  0.00    -0.297 OA
ATOM     22  C   LIG    1       -7.423  -0.941   0.388  0.00  0.00    +0.086 C 
ENDBRANCH  15  20
BRANCH   5  23
ATOM     23  O   LIG    1        4.682  -0.061  -0.599  0.00  0.00    -0.461 OA
BRANCH  23  24
ATOM     24  C   LIG    1        5.690   0.360  -1.468  0.00  0.00    +0.308 C 
ATOM     25  O   LIG    1        5.339   0.872  -2.583  0.00  0.00    -0.251 OA
BRANCH  24  26
ATOM     26  C   LIG    1        7.106   0.218  -1.111  0.00  0.00    +0.132 C 
BRANCH  26  27
ATOM     27  C   LIG    1        7.219  -0.416   0.247  0.00  0.00    +0.131 C 
BRANCH  27  28
ATOM     28  C   LIG    1        8.649  -0.569   0.629  0.00  0.00    +0.305 C 
ATOM     29  O   LIG    1        8.934  -1.085   1.742  0.00  0.00    -0.251 OA
BRANCH  28  30
ATOM     30  O   LIG    1        9.668  -0.157  -0.215  0.00  0.00    -0.481 OA
ATOM     31  H   LIG    1       10.054   0.763  -0.083  0.00  0.00    +0.295 HD
ENDBRANCH  28  30
ENDBRANCH  27  28
ENDBRANCH  26  27
ENDBRANCH  24  26
ENDBRANCH  23  24
ENDBRANCH   5  23
TORSDOF 7
