REMARK  Name = molecules/PAXWQORCRCBOCU-RPDRGXCHSA-N.pdb
REMARK                            x       y       z     vdW  Elec       q    Type
REMARK                         _______ _______ _______ _____ _____    ______ ____
ROOT
ATOM      1  C   LIG    1        0.298  -0.448  -0.392  0.00  0.00    -0.007 A 
ATOM      2  C   LIG    1        0.778  -1.074   0.734  0.00  0.00    +0.130 A 
ATOM      3  F   LIG    1       -0.062  -1.805   1.511  0.00  0.00    -0.205 F 
ATOM      4  C   LIG    1        2.111  -0.956   1.065  0.00  0.00    +0.087 A 
ATOM      5  C   LIG    1        2.997  -0.221   0.292  0.00  0.00    +0.161 A 
ATOM      6  C   LIG    1        2.540   0.411  -0.835  0.00  0.00    +0.159 A 
ATOM      7  C   LIG    1        1.197   0.287  -1.158  0.00  0.00    +0.055 A 
ENDROOT
BRANCH   5   8
ATOM      8  O   LIG    1        4.337  -0.107   0.631  0.00  0.00    -0.503 OA
ATOM      9  H   LIG    1        4.994   0.419   0.088  0.00  0.00    +0.292 HD
ENDBRANCH   5   8
BRANCH   6  10
ATOM     10  O   LIG    1        3.331   1.173  -1.683  0.00  0.00    -0.503 OA
ATOM     11  H   LIG    1        4.299   1.339  -1.563  0.00  0.00    +0.292 HD
ENDBRANCH   6  10
BRANCH   1  12
ATOM     12  C   LIG    1       -1.111  -0.509  -0.829  0.00  0.00    +0.068 C 
BRANCH  12  13
ATOM     13  CA  LIG    1       -1.993   0.391  -0.017  0.00  0.00    +0.165 C 
BRANCH  13  14
ATOM     14  N   LIG    1       -1.935   0.019   1.382  0.00  0.00    -0.318 NA
ATOM     15  H1  LIG    1       -1.544   0.798   1.986  0.00  0.00    +0.119 HD
ATOM     16  H2  LIG    1       -2.883  -0.160   1.787  0.00  0.00    +0.119 HD
ENDBRANCH  13  14
BRANCH  13  17
ATOM     17  C   LIG    1       -3.396   0.311  -0.476  0.00  0.00    +0.322 C 
ATOM     18  O   LIG    1       -3.716   0.589  -1.671  0.00  0.00    -0.249 OA
BRANCH  17  19
ATOM     19  OXT LIG    1       -4.402  -0.075   0.401  0.00  0.00    -0.480 OA
ATOM     20  HXT LIG    1       -4.824   0.632   1.014  0.00  0.00    +0.295 HD
ENDBRANCH  17  19
ENDBRANCH  13  17
ENDBRANCH  12  13
ENDBRANCH   1  12
TORSDOF 7
