REMARK  Name = molecules/PAZJSJFMUHDSTF-AWEZNQCLSA-N.pdb
REMARK                            x       y       z     vdW  Elec       q    Type
REMARK                         _______ _______ _______ _____ _____    ______ ____
ROOT
ATOM      1  O   LIG    1       -1.278  -0.013   0.402  0.00  0.00    -0.489 OA
ENDROOT
BRANCH   1   2
ATOM      2  C   LIG    1       -2.285  -0.274  -0.410  0.00  0.00    +0.124 A 
ATOM      3  C   LIG    1       -3.591  -0.205   0.111  0.00  0.00    -0.002 A 
ATOM      4  C   LIG    1       -4.701  -0.459  -0.660  0.00  0.00    +0.007 A 
ATOM      5  C   LIG    1       -4.569  -0.791  -1.980  0.00  0.00    +0.001 A 
ATOM      6  C   LIG    1       -3.327  -0.870  -2.530  0.00  0.00    +0.004 A 
ATOM      7  C   LIG    1       -2.201  -0.610  -1.736  0.00  0.00    +0.046 A 
BRANCH   3   8
ATOM      8  C   LIG    1       -3.733   0.154   1.532  0.00  0.00    +0.065 C 
BRANCH   8   9
ATOM      9  C   LIG    1       -3.525   1.616   1.758  0.00  0.00    -0.030 C 
ATOM     10  C   LIG    1       -3.251   2.420   0.731  0.00  0.00    +0.004 C 
ENDBRANCH   8   9
ENDBRANCH   3   8
ENDBRANCH   1   2
BRANCH   1  11
ATOM     11  C   LIG    1        0.066   0.060   0.473  0.00  0.00    +0.261 C 
BRANCH  11  12
ATOM     12  C   LIG    1        0.884  -1.171   0.253  0.00  0.00    +0.166 C 
BRANCH  12  13
ATOM     13  O   LIG    1        0.773  -1.749  -0.999  0.00  0.00    -0.387 OA
ATOM     14  H   LIG    1        1.214  -1.135  -1.648  0.00  0.00    +0.210 HD
ENDBRANCH  12  13
BRANCH  12  15
ATOM     15  C   LIG    1        2.336  -0.869   0.546  0.00  0.00    +0.115 C 
BRANCH  15  16
ATOM     16  N   LIG    1        2.852   0.010  -0.431  0.00  0.00    -0.311 NA
ATOM     17  H   LIG    1        2.361   0.933  -0.360  0.00  0.00    +0.122 HD
BRANCH  16  18
ATOM     18  C   LIG    1        4.254   0.329  -0.277  0.00  0.00    +0.048 C 
ATOM     19  C   LIG    1        4.534   1.050   1.024  0.00  0.00    +0.023 C 
ATOM     20  C   LIG    1        5.165  -0.840  -0.394  0.00  0.00    +0.023 C 
ENDBRANCH  16  18
ENDBRANCH  15  16
ENDBRANCH  12  15
ENDBRANCH  11  12
ENDBRANCH   1  11
TORSDOF 9
