REMARK  Name = molecules/PBAPPPCECJKMCM-IBGZPJMESA-N.pdb
REMARK                            x       y       z     vdW  Elec       q    Type
REMARK                         _______ _______ _______ _____ _____    ______ ____
ROOT
ATOM      1  C   LIG    1        2.630  -1.048  -0.623  0.00  0.00    +0.033 A 
ATOM      2  C   LIG    1        2.175   0.176  -0.188  0.00  0.00    +0.023 A 
ATOM      3  C   LIG    1        0.799   0.449  -0.068  0.00  0.00    +0.005 A 
ATOM      4  C   LIG    1       -0.087  -0.547  -0.401  0.00  0.00    -0.046 A 
ATOM      5  C   LIG    1        0.314  -1.784  -0.838  0.00  0.00    +0.005 A 
ATOM      6  C   LIG    1        1.672  -2.022  -0.945  0.00  0.00    +0.023 A 
ENDROOT
BRANCH   1   7
ATOM      7  N   LIG    1        3.985  -1.376  -0.793  0.00  0.00    -0.285 N 
ATOM      8  C   LIG    1        5.039  -0.657  -0.225  0.00  0.00    +0.223 C 
ATOM      9  O   LIG    1        4.884   0.335   0.490  0.00  0.00    -0.275 OA
ATOM     10  H   LIG    1        4.185  -2.237  -1.411  0.00  0.00    +0.155 HD
BRANCH   8  11
ATOM     11  C   LIG    1        6.432  -1.104  -0.492  0.00  0.00    +0.152 C 
BRANCH  11  12
ATOM     12  C   LIG    1        7.418  -0.205   0.224  0.00  0.00    +0.059 A 
ATOM     13  C   LIG    1        7.893  -0.552   1.467  0.00  0.00    +0.072 A 
ATOM     14  S   LIG    1        8.935   0.757   1.814  0.00  0.00    -0.061 S 
ATOM     15  C   LIG    1        8.704   1.663   0.359  0.00  0.00    +0.156 A 
ATOM     16  N   LIG    1        7.843   0.898  -0.291  0.00  0.00    -0.230 NA
BRANCH  15  17
ATOM     17  N   LIG    1        9.292   2.906  -0.025  0.00  0.00    -0.338 N 
ATOM     18  H   LIG    1        9.901   3.386   0.646  0.00  0.00    +0.144 HD
ATOM     19  H   LIG    1        9.101   3.297  -0.950  0.00  0.00    +0.144 HD
ENDBRANCH  15  17
ENDBRANCH  11  12
ENDBRANCH   8  11
ENDBRANCH   1   7
BRANCH   4  20
ATOM     20  C   LIG    1       -1.543  -0.264  -0.288  0.00  0.00    +0.050 C 
BRANCH  20  21
ATOM     21  C   LIG    1       -2.038  -0.634   1.082  0.00  0.00    +0.085 C 
BRANCH  21  22
ATOM     22  N   LIG    1       -3.441  -0.366   1.230  0.00  0.00    -0.313 NA
ATOM     23  H   LIG    1       -3.611   0.638   1.110  0.00  0.00    +0.122 HD
BRANCH  22  24
ATOM     24  C   LIG    1       -4.218  -1.250   0.439  0.00  0.00    +0.117 C 
BRANCH  24  25
ATOM     25  C   LIG    1       -5.712  -1.035   0.592  0.00  0.00    +0.158 C 
BRANCH  25  26
ATOM     26  C   LIG    1       -6.162   0.296   0.136  0.00  0.00    -0.018 A 
ATOM     27  C   LIG    1       -6.593   1.253   1.014  0.00  0.00    +0.006 A 
ATOM     28  C   LIG    1       -7.004   2.475   0.541  0.00  0.00    +0.000 A 
ATOM     29  C   LIG    1       -7.003   2.794  -0.799  0.00  0.00    +0.000 A 
ATOM     30  C   LIG    1       -6.566   1.817  -1.663  0.00  0.00    +0.000 A 
ATOM     31  C   LIG    1       -6.149   0.584  -1.210  0.00  0.00    +0.006 A 
ENDBRANCH  25  26
BRANCH  25  32
ATOM     32  O   LIG    1       -6.313  -1.982  -0.248  0.00  0.00    -0.386 OA
ATOM     33  H   LIG    1       -5.717  -2.164  -1.018  0.00  0.00    +0.210 HD
ENDBRANCH  25  32
ENDBRANCH  24  25
ENDBRANCH  22  24
ENDBRANCH  21  22
ENDBRANCH  20  21
ENDBRANCH   4  20
TORSDOF 11
