REMARK  Name = molecules/PBBGSZCBWVPOOL-HDICACEKSA-N.pdb
REMARK                            x       y       z     vdW  Elec       q    Type
REMARK                         _______ _______ _______ _____ _____    ______ ____
ROOT
ATOM      1  C   LIG    1       -0.447   0.369   0.491  0.00  0.00    +0.026 C 
ENDROOT
BRANCH   1   2
ATOM      2  C   LIG    1       -1.859   0.044   0.294  0.00  0.00    -0.043 A 
ATOM      3  C   LIG    1       -2.639  -0.279   1.383  0.00  0.00    +0.007 A 
ATOM      4  C   LIG    1       -3.977  -0.592   1.287  0.00  0.00    +0.045 A 
ATOM      5  C   LIG    1       -4.604  -0.593   0.051  0.00  0.00    +0.117 A 
ATOM      6  C   LIG    1       -3.835  -0.273  -1.039  0.00  0.00    +0.045 A 
ATOM      7  C   LIG    1       -2.503   0.037  -0.926  0.00  0.00    +0.007 A 
BRANCH   5   8
ATOM      8  O   LIG    1       -5.963  -0.909  -0.064  0.00  0.00    -0.507 OA
ATOM      9  H   LIG    1       -6.472  -1.135   0.769  0.00  0.00    +0.292 HD
ENDBRANCH   5   8
ENDBRANCH   1   2
BRANCH   1  10
ATOM     10  C   LIG    1       -0.242   1.836   0.321  0.00  0.00    +0.005 C 
ATOM     11  C   LIG    1       -0.457   2.369  -1.052  0.00  0.00    +0.004 C 
ENDBRANCH   1  10
BRANCH   1  12
ATOM     12  C   LIG    1        0.470  -0.447  -0.369  0.00  0.00    +0.026 C 
BRANCH  12  13
ATOM     13  C   LIG    1        1.882  -0.094  -0.152  0.00  0.00    -0.043 A 
ATOM     14  C   LIG    1        2.500  -0.119   1.079  0.00  0.00    +0.007 A 
ATOM     15  C   LIG    1        3.825   0.226   1.227  0.00  0.00    +0.045 A 
ATOM     16  C   LIG    1        4.603   0.613   0.158  0.00  0.00    +0.117 A 
ATOM     17  C   LIG    1        4.004   0.645  -1.083  0.00  0.00    +0.045 A 
ATOM     18  C   LIG    1        2.679   0.299  -1.224  0.00  0.00    +0.007 A 
BRANCH  16  19
ATOM     19  O   LIG    1        5.950   0.963   0.315  0.00  0.00    -0.507 OA
ATOM     20  H   LIG    1        6.128   1.942   0.503  0.00  0.00    +0.292 HD
ENDBRANCH  16  19
ENDBRANCH  12  13
BRANCH  12  21
ATOM     21  C   LIG    1        0.267  -1.922  -0.198  0.00  0.00    +0.005 C 
ATOM     22  C   LIG    1        0.487  -2.438   1.187  0.00  0.00    +0.004 C 
ENDBRANCH  12  21
ENDBRANCH   1  12
TORSDOF 7
