REMARK  Name = molecules/PBMSWVPMRUJMPE-UHFFFAOYSA-N.pdb
REMARK                            x       y       z     vdW  Elec       q    Type
REMARK                         _______ _______ _______ _____ _____    ______ ____
ROOT
ATOM      1  C   LIG    1       -0.104  -0.751   0.182  0.00  0.00    +0.034 A 
ATOM      2  C   LIG    1        0.875  -0.741   1.179  0.00  0.00    +0.025 A 
ATOM      3  C   LIG    1        2.173  -1.052   0.890  0.00  0.00    +0.030 A 
ATOM      4  C   LIG    1        2.569  -1.382  -0.381  0.00  0.00    +0.109 A 
ATOM      5  C   LIG    1        1.604  -1.393  -1.365  0.00  0.00    +0.030 A 
ATOM      6  C   LIG    1        0.304  -1.085  -1.087  0.00  0.00    +0.025 A 
ENDROOT
BRANCH   1   8
ATOM      7  C   LIG    1       -2.553  -0.895  -0.167  0.00  0.00    +0.249 C 
ATOM      8  N   LIG    1       -1.435  -0.395   0.491  0.00  0.00    -0.281 N 
ATOM      9  H   LIG    1       -1.560   0.273   1.285  0.00  0.00    +0.155 HD
ATOM     10  O   LIG    1       -2.376  -1.757  -1.102  0.00  0.00    -0.270 OA
BRANCH   7  11
ATOM     11  C   LIG    1       -3.922  -0.531   0.122  0.00  0.00    +0.051 A 
ATOM     12  C   LIG    1       -4.822  -1.572   0.402  0.00  0.00    +0.014 A 
ATOM     13  C   LIG    1       -6.108  -1.297   0.809  0.00  0.00    +0.001 A 
ATOM     14  C   LIG    1       -6.527   0.007   0.947  0.00  0.00    +0.001 A 
ATOM     15  C   LIG    1       -5.661   1.044   0.676  0.00  0.00    +0.016 A 
ATOM     16  C   LIG    1       -4.345   0.751   0.257  0.00  0.00    +0.071 A 
BRANCH  16  17
ATOM     17  C   LIG    1       -3.485   1.856  -0.138  0.00  0.00    +0.338 C 
ATOM     18  O   LIG    1       -3.955   3.040   0.089  0.00  0.00    -0.245 OA
BRANCH  17  19
ATOM     19  O   LIG    1       -2.256   1.775  -0.721  0.00  0.00    -0.477 OA
ATOM     20  H   LIG    1       -1.628   2.540  -0.749  0.00  0.00    +0.295 HD
ENDBRANCH  17  19
ENDBRANCH  16  17
ENDBRANCH   7  11
ENDBRANCH   1   8
BRANCH   4  21
ATOM     21  S   LIG    1        4.199  -1.778  -0.852  0.00  0.00    +0.074 S 
ATOM     22  O   LIG    1        4.968  -2.285   0.335  0.00  0.00    -0.150 OA
ATOM     23  O   LIG    1        4.080  -2.876  -1.899  0.00  0.00    -0.150 OA
BRANCH  21  24
ATOM     24  N   LIG    1        5.032  -0.428  -1.505  0.00  0.00    -0.194 N 
ATOM     25  H   LIG    1        5.362  -0.464  -2.484  0.00  0.00    +0.176 HD
BRANCH  24  26
ATOM     26  C   LIG    1        5.251   0.727  -0.674  0.00  0.00    +0.177 A 
ATOM     27  S   LIG    1        4.845   1.015   0.955  0.00  0.00    -0.059 S 
ATOM     28  C   LIG    1        5.481   2.589   1.123  0.00  0.00    +0.068 A 
ATOM     29  C   LIG    1        5.986   2.802  -0.134  0.00  0.00    +0.120 A 
ATOM     30  N   LIG    1        5.861   1.865  -1.010  0.00  0.00    -0.232 NA
ENDBRANCH  24  26
ENDBRANCH  21  24
ENDBRANCH   4  21
TORSDOF 7
