REMARK  Name = molecules/PBUNVLRHZGSROC-VTIMJTGVSA-N.pdb
REMARK                            x       y       z     vdW  Elec       q    Type
REMARK                         _______ _______ _______ _____ _____    ______ ____
ROOT
ATOM      1  C   LIG    1       -2.841   0.591  -0.540  0.00  0.00    +0.269 C 
ATOM      2  N   LIG    1       -3.186  -0.158   0.725  0.00  0.00    -0.233 N 
ATOM      3  C   LIG    1       -4.263   0.381   1.440  0.00  0.00    +0.167 C 
ATOM      4  C   LIG    1       -4.030   1.901   1.477  0.00  0.00    +0.237 C 
ATOM      5  O   LIG    1       -3.922   2.521   2.539  0.00  0.00    -0.274 OA
ATOM      6  N   LIG    1       -3.952   2.516   0.213  0.00  0.00    -0.290 N 
ATOM      7  C   LIG    1       -3.908   3.868  -0.254  0.00  0.00    +0.108 C 
ATOM      8  C   LIG    1       -3.846   3.819  -1.747  0.00  0.00    +0.021 C 
ATOM      9  C   LIG    1       -3.324   2.429  -2.050  0.00  0.00    +0.031 C 
ATOM     10  C   LIG    1       -2.182  -1.167   0.685  0.00  0.00    +0.271 C 
ATOM     11  O   LIG    1       -1.781  -1.782   1.707  0.00  0.00    -0.270 OA
ATOM     12  C   LIG    1       -1.748  -1.312  -0.716  0.00  0.00    +0.220 C 
ATOM     13  C   LIG    1       -3.888   1.562  -0.920  0.00  0.00    +0.156 C 
ATOM     14  O   LIG    1       -2.694  -0.455  -1.404  0.00  0.00    -0.298 OA
ENDROOT
BRANCH  12  15
ATOM     15  N   LIG    1       -0.442  -0.750  -0.956  0.00  0.00    -0.280 N 
ATOM     16  C   LIG    1        0.757  -1.046  -0.308  0.00  0.00    +0.220 C 
ATOM     17  O   LIG    1        0.792  -1.889   0.613  0.00  0.00    -0.275 OA
ATOM     18  H   LIG    1       -0.385  -0.016  -1.730  0.00  0.00    +0.152 HD
BRANCH  16  19
ATOM     19  C   LIG    1        2.036  -0.393  -0.665  0.00  0.00    +0.090 C 
ATOM     20  C   LIG    1        3.187  -0.889   0.179  0.00  0.00    +0.023 C 
ATOM     21  C   LIG    1        4.448  -0.367  -0.470  0.00  0.00    +0.038 C 
ATOM     22  C   LIG    1        5.684  -0.746   0.219  0.00  0.00    -0.033 A 
ATOM     23  C   LIG    1        5.821  -1.897   0.976  0.00  0.00    +0.004 A 
ATOM     24  C   LIG    1        7.037  -2.162   1.582  0.00  0.00    +0.002 A 
ATOM     25  C   LIG    1        8.131  -1.298   1.449  0.00  0.00    +0.026 A 
ATOM     26  C   LIG    1        7.998  -0.148   0.694  0.00  0.00    +0.047 A 
ATOM     27  N   LIG    1        8.806   0.872   0.361  0.00  0.00    -0.360 N 
ATOM     28  H   LIG    1        9.797   1.009   0.637  0.00  0.00    +0.165 HD
ATOM     29  C   LIG    1        8.118   1.729  -0.416  0.00  0.00    +0.087 A 
ATOM     30  C   LIG    1        6.828   1.253  -0.593  0.00  0.00    -0.021 A 
ATOM     31  C   LIG    1        5.595   1.672  -1.293  0.00  0.00    +0.056 C 
ATOM     32  C   LIG    1        6.773   0.071   0.113  0.00  0.00    +0.006 A 
ATOM     33  C   LIG    1        4.382   1.133  -0.551  0.00  0.00    +0.068 C 
ATOM     34  N   LIG    1        3.200   1.617  -1.193  0.00  0.00    -0.301 NA
ATOM     35  C   LIG    1        3.232   3.066  -1.152  0.00  0.00    +0.105 C 
ATOM     36  C   LIG    1        1.990   1.096  -0.570  0.00  0.00    +0.097 C 
ENDBRANCH  16  19
ENDBRANCH  12  15
BRANCH  12  37
ATOM     37  C   LIG    1       -2.010  -2.649  -1.268  0.00  0.00    +0.043 C 
ATOM     38  C   LIG    1       -1.210  -3.783  -0.617  0.00  0.00    +0.012 C 
ATOM     39  C   LIG    1       -3.460  -3.020  -1.014  0.00  0.00    +0.012 C 
ENDBRANCH  12  37
BRANCH   1  40
ATOM     40  O   LIG    1       -1.663   1.292  -0.285  0.00  0.00    -0.348 OA
ATOM     41  H   LIG    1       -1.746   1.795   0.554  0.00  0.00    +0.214 HD
ENDBRANCH   1  40
BRANCH   3  42
ATOM     42  C   LIG    1       -4.779  -0.075   2.716  0.00  0.00    +0.035 C 
BRANCH  42  43
ATOM     43  C   LIG    1       -5.378  -1.409   2.922  0.00  0.00    -0.015 C 
ATOM     44  C   LIG    1       -4.580  -2.628   2.704  0.00  0.00    +0.007 C 
ATOM     45  C   LIG    1       -6.672  -1.570   2.098  0.00  0.00    +0.007 C 
ENDBRANCH  42  43
ENDBRANCH   3  42
TORSDOF 6
