REMARK  Name = molecules/PCHKPVIQAHNQLW-CQSZACIVSA-N.pdb
REMARK                            x       y       z     vdW  Elec       q    Type
REMARK                         _______ _______ _______ _____ _____    ______ ____
ROOT
ATOM      1  C   LIG    1        5.156  -2.186  -0.171  0.00  0.00    +0.011 A 
ATOM      2  C   LIG    1        3.969  -1.518  -0.021  0.00  0.00    +0.021 A 
ATOM      3  C   LIG    1        2.641  -1.887   0.086  0.00  0.00    +0.123 A 
ATOM      4  N   LIG    1        1.903  -0.770   0.216  0.00  0.00    -0.239 N 
ATOM      5  N   LIG    1        2.735   0.256   0.191  0.00  0.00    -0.166 NA
ATOM      6  C   LIG    1        4.003  -0.137   0.049  0.00  0.00    +0.105 A 
ATOM      7  C   LIG    1        5.162   0.586  -0.024  0.00  0.00    +0.064 A 
ATOM      8  C   LIG    1        6.349  -0.099  -0.174  0.00  0.00    +0.015 A 
ATOM      9  C   LIG    1        6.324  -1.493  -0.246  0.00  0.00    +0.001 A 
ENDROOT
BRANCH   4  10
ATOM     10  C   LIG    1        0.488  -0.655   0.358  0.00  0.00    +0.065 A 
ATOM     11  C   LIG    1       -0.209  -1.288   1.341  0.00  0.00    +0.028 A 
ATOM     12  C   LIG    1       -1.591  -1.135   1.425  0.00  0.00    +0.006 A 
ATOM     13  C   LIG    1       -2.297  -0.350   0.530  0.00  0.00    -0.043 A 
ATOM     14  C   LIG    1       -1.581   0.280  -0.453  0.00  0.00    +0.006 A 
ATOM     15  C   LIG    1       -0.201   0.129  -0.538  0.00  0.00    +0.028 A 
BRANCH  13  16
ATOM     16  C   LIG    1       -3.753  -0.171   0.596  0.00  0.00    +0.033 C 
ATOM     17  C   LIG    1       -4.178   1.258   0.750  0.00  0.00    +0.089 C 
ATOM     18  N   LIG    1       -4.836   1.796  -0.414  0.00  0.00    -0.315 NA
ATOM     19  C   LIG    1       -6.105   1.154  -0.661  0.00  0.00    +0.081 C 
ATOM     20  C   LIG    1       -5.926  -0.327  -0.543  0.00  0.00    +0.016 C 
ATOM     21  H   LIG    1       -4.278   1.741  -1.282  0.00  0.00    +0.122 HD
ATOM     22  C   LIG    1       -4.457  -0.732  -0.629  0.00  0.00    +0.010 C 
ENDBRANCH  13  16
ENDBRANCH   4  10
BRANCH   7  23
ATOM     23  C   LIG    1        5.160   2.041   0.054  0.00  0.00    +0.244 C 
ATOM     24  O   LIG    1        4.047   2.638   0.193  0.00  0.00    -0.270 OA
ATOM     25  N   LIG    1        6.346   2.791  -0.019  0.00  0.00    -0.325 N 
ATOM     26  H   LIG    1        7.259   2.378   0.250  0.00  0.00    +0.145 HD
ATOM     27  H   LIG    1        6.315   3.780  -0.349  0.00  0.00    +0.145 HD
ENDBRANCH   7  23
TORSDOF 3
