REMARK  Name = molecules/PCOBBVZJEWWZFR-UHFFFAOYSA-N.pdb
REMARK                            x       y       z     vdW  Elec       q    Type
REMARK                         _______ _______ _______ _____ _____    ______ ____
ROOT
ATOM      1  C   LIG    1       -0.816  -0.108   0.310  0.00  0.00    +0.029 A 
ATOM      2  C   LIG    1       -0.221  -0.637   1.432  0.00  0.00    +0.047 A 
ATOM      3  C   LIG    1        1.140  -0.944   1.441  0.00  0.00    +0.048 A 
ATOM      4  C   LIG    1        1.944  -0.733   0.335  0.00  0.00    +0.057 A 
ATOM      5  C   LIG    1        1.315  -0.203  -0.769  0.00  0.00    +0.027 A 
ATOM      6  C   LIG    1       -0.049   0.108  -0.787  0.00  0.00    +0.025 A 
ENDROOT
BRANCH   4   7
ATOM      7  N   LIG    1        3.312  -1.068   0.420  0.00  0.00    -0.249 N 
ATOM      8  H   LIG    1        3.627  -1.471   1.363  0.00  0.00    +0.158 HD
ATOM      9  C   LIG    1        4.292  -0.937  -0.570  0.00  0.00    +0.405 C 
ATOM     10  O   LIG    1        4.070  -0.487  -1.706  0.00  0.00    -0.226 OA
BRANCH   9  11
ATOM     11  O   LIG    1        5.593  -1.324  -0.297  0.00  0.00    -0.450 OA
BRANCH  11  12
ATOM     12  C   LIG    1        6.643  -1.230  -1.228  0.00  0.00    +0.230 C 
ATOM     13  C   LIG    1        6.785   0.240  -1.613  0.00  0.00    +0.048 C 
ENDBRANCH  11  12
ENDBRANCH   9  11
ENDBRANCH   4   7
BRANCH   3  14
ATOM     14  N   LIG    1        1.689  -1.484   2.624  0.00  0.00    -0.356 N 
ATOM     15  H   LIG    1        1.956  -0.810   3.381  0.00  0.00    +0.142 HD
ATOM     16  H   LIG    1        1.842  -2.500   2.787  0.00  0.00    +0.142 HD
ENDBRANCH   3  14
BRANCH   1  17
ATOM     17  N   LIG    1       -2.217   0.192   0.346  0.00  0.00    -0.340 N 
ATOM     18  H   LIG    1       -2.762   0.008   1.213  0.00  0.00    +0.146 HD
BRANCH  17  19
ATOM     19  C   LIG    1       -2.912   0.748  -0.788  0.00  0.00    +0.137 C 
BRANCH  19  25
ATOM     20  C   LIG    1       -6.090   2.330   0.473  0.00  0.00    +0.038 A 
ATOM     21  C   LIG    1       -7.015   1.323   0.258  0.00  0.00    +0.123 A 
ATOM     22  F   LIG    1       -8.321   1.464   0.574  0.00  0.00    -0.205 F 
ATOM     23  C   LIG    1       -6.600   0.126  -0.300  0.00  0.00    +0.038 A 
ATOM     24  C   LIG    1       -5.262  -0.041  -0.633  0.00  0.00    +0.008 A 
ATOM     25  C   LIG    1       -4.333   0.938  -0.429  0.00  0.00    -0.030 A 
ATOM     26  C   LIG    1       -4.751   2.129   0.127  0.00  0.00    +0.008 A 
ENDBRANCH  19  25
ENDBRANCH  17  19
ENDBRANCH   1  17
TORSDOF 7
