REMARK  Name = molecules/PCZOHLXUXFIOCF-BXMDZJJMSA-N.pdb
REMARK                            x       y       z     vdW  Elec       q    Type
REMARK                         _______ _______ _______ _____ _____    ______ ____
ROOT
ATOM      1  C   LIG    1        1.019  -0.745  -1.087  0.00  0.00    +0.185 C 
ATOM      2  C   LIG    1        0.195  -1.583  -0.136  0.00  0.00    +0.063 C 
ATOM      3  C   LIG    1       -0.490  -0.799   0.929  0.00  0.00    +0.007 C 
ATOM      4  C   LIG    1       -1.222  -1.687   1.896  0.00  0.00    +0.012 C 
ATOM      5  C   LIG    1       -0.218  -2.501   2.616  0.00  0.00    -0.023 C 
ATOM      6  C   LIG    1        0.866  -2.872   1.990  0.00  0.00    -0.000 C 
ATOM      7  C   LIG    1       -2.177  -2.659   1.278  0.00  0.00    +0.012 C 
ATOM      8  C   LIG    1        1.142  -2.515   0.583  0.00  0.00    -0.044 C 
ATOM      9  C   LIG    1        2.193  -2.975  -0.057  0.00  0.00    -0.020 C 
ATOM     10  C   LIG    1        2.583  -2.684  -1.450  0.00  0.00    +0.012 C 
ATOM     11  C   LIG    1        4.013  -2.176  -1.450  0.00  0.00    +0.012 C 
ATOM     12  C   LIG    1        1.630  -1.746  -2.083  0.00  0.00    +0.052 C 
ENDROOT
BRANCH   1  13
ATOM     13  O   LIG    1        2.111  -0.108  -0.487  0.00  0.00    -0.461 OA
BRANCH  13  14
ATOM     14  C   LIG    1        2.423   1.243  -0.601  0.00  0.00    +0.310 C 
ATOM     15  O   LIG    1        1.644   1.931  -1.308  0.00  0.00    -0.251 OA
BRANCH  14  16
ATOM     16  C   LIG    1        3.571   1.883   0.038  0.00  0.00    +0.094 C 
ATOM     17  C   LIG    1        3.584   3.358  -0.290  0.00  0.00    +0.019 C 
BRANCH  16  18
ATOM     18  C   LIG    1        3.552   1.766   1.547  0.00  0.00    +0.011 C 
ATOM     19  C   LIG    1        4.800   2.474   2.054  0.00  0.00    +0.004 C 
ENDBRANCH  16  18
ENDBRANCH  14  16
ENDBRANCH  13  14
ENDBRANCH   1  13
BRANCH   3  20
ATOM     20  C   LIG    1       -1.260   0.394   0.467  0.00  0.00    +0.008 C 
BRANCH  20  21
ATOM     21  C   LIG    1       -2.363   0.119  -0.488  0.00  0.00    +0.045 C 
BRANCH  21  22
ATOM     22  C   LIG    1       -3.079   1.366  -0.910  0.00  0.00    +0.179 C 
ATOM     23  C   LIG    1       -3.724   2.153   0.166  0.00  0.00    +0.076 C 
ATOM     24  C   LIG    1       -5.194   1.890   0.362  0.00  0.00    +0.129 C 
ATOM     25  C   LIG    1       -5.625   0.524  -0.096  0.00  0.00    +0.152 C 
ATOM     26  C   LIG    1       -5.120   0.247  -1.470  0.00  0.00    +0.310 C 
ATOM     27  O   LIG    1       -5.659  -0.633  -2.208  0.00  0.00    -0.251 OA
ATOM     28  O   LIG    1       -4.036   1.000  -1.896  0.00  0.00    -0.461 OA
BRANCH  24  29
ATOM     29  O   LIG    1       -5.973   2.816  -0.370  0.00  0.00    -0.391 OA
ATOM     30  H   LIG    1       -5.584   3.711  -0.228  0.00  0.00    +0.210 HD
ENDBRANCH  24  29
ENDBRANCH  21  22
ENDBRANCH  20  21
ENDBRANCH   3  20
TORSDOF 8
