REMARK  Name = molecules/PDMMFKSKQVNJMI-BLQWBTBKSA-N.pdb
REMARK                            x       y       z     vdW  Elec       q    Type
REMARK                         _______ _______ _______ _____ _____    ______ ____
ROOT
ATOM      1  C   LIG    1       -2.913  -1.803   0.747  0.00  0.00    +0.016 C 
ATOM      2  C   LIG    1       -2.933  -0.285   0.495  0.00  0.00    -0.007 C 
ATOM      3  C   LIG    1       -3.597   0.285   1.688  0.00  0.00    +0.019 C 
ATOM      4  C   LIG    1       -4.303   1.597   1.509  0.00  0.00    +0.080 C 
ATOM      5  C   LIG    1       -5.150   1.557   0.303  0.00  0.00    +0.156 C 
ATOM      6  O   LIG    1       -6.263   2.131   0.329  0.00  0.00    -0.293 OA
ATOM      7  C   LIG    1       -4.639   0.836  -0.886  0.00  0.00    +0.046 C 
ATOM      8  C   LIG    1       -1.541   0.216   0.229  0.00  0.00    +0.002 C 
ATOM      9  C   LIG    1       -0.677   0.270   1.436  0.00  0.00    +0.005 C 
ATOM     10  C   LIG    1        0.759   0.545   1.195  0.00  0.00    +0.011 C 
ATOM     11  C   LIG    1        1.359  -0.076  -0.002  0.00  0.00    +0.008 C 
ATOM     12  C   LIG    1        1.801  -1.486   0.160  0.00  0.00    +0.015 C 
ATOM     13  C   LIG    1        2.536   0.707  -0.580  0.00  0.00    +0.183 C 
ATOM     14  C   LIG    1        2.547   0.225  -2.030  0.00  0.00    +0.045 C 
ATOM     15  C   LIG    1        1.165  -0.345  -2.302  0.00  0.00    +0.008 C 
ATOM     16  C   LIG    1        0.387   0.131  -1.153  0.00  0.00    +0.002 C 
ATOM     17  C   LIG    1       -0.893  -0.589  -0.846  0.00  0.00    -0.003 C 
ATOM     18  C   LIG    1       -1.675  -0.906  -2.053  0.00  0.00    +0.008 C 
ATOM     19  C   LIG    1       -3.150  -0.682  -2.010  0.00  0.00    +0.032 C 
ATOM     20  C   LIG    1       -3.630  -0.002  -0.799  0.00  0.00    -0.060 C 
ENDROOT
BRANCH  13  21
ATOM     21  O   LIG    1        3.751   0.308  -0.007  0.00  0.00    -0.461 OA
BRANCH  21  22
ATOM     22  C   LIG    1        4.546   1.260   0.614  0.00  0.00    +0.307 C 
ATOM     23  O   LIG    1        4.143   2.448   0.640  0.00  0.00    -0.251 OA
BRANCH  22  24
ATOM     24  C   LIG    1        5.851   0.939   1.250  0.00  0.00    +0.117 C 
ATOM     25  C   LIG    1        6.174  -0.519   1.126  0.00  0.00    +0.015 C 
ENDBRANCH  22  24
ENDBRANCH  21  22
ENDBRANCH  13  21
TORSDOF 3
