REMARK  Name = molecules/PDTFCHSETJBPTR-UHFFFAOYSA-N.pdb
REMARK                            x       y       z     vdW  Elec       q    Type
REMARK                         _______ _______ _______ _____ _____    ______ ____
ROOT
ATOM      1  C   LIG    1       -0.277  -0.282  -0.085  0.00  0.00    +0.000 A 
ATOM      2  C   LIG    1       -1.254  -1.225   0.149  0.00  0.00    +0.000 A 
ATOM      3  C   LIG    1       -2.558  -0.876   0.454  0.00  0.00    +0.000 A 
ATOM      4  C   LIG    1       -2.865   0.479   0.520  0.00  0.00    +0.000 A 
ATOM      5  C   LIG    1       -1.932   1.442   0.297  0.00  0.00    +0.000 A 
ATOM      6  C   LIG    1       -0.642   1.045  -0.005  0.00  0.00    +0.000 A 
ENDROOT
BRANCH   1   7
ATOM      7 HG   LIG    1        1.673  -0.795  -0.541  0.00  0.00    +0.000 Hg
BRANCH   7   8
ATOM      8  O   LIG    1        3.638  -1.284  -0.571  0.00  0.00    +0.000 OA
BRANCH   8   9
ATOM      9  N   LIG    1        4.565  -0.268  -0.383  0.00  0.00    +0.000 N 
ATOM     10  O   LIG    1        4.178   0.950   0.130  0.00  0.00    +0.000 OA
ATOM     11  O   LIG    1        5.763  -0.431  -0.674  0.00  0.00    +0.000 OA
ENDBRANCH   8   9
ENDBRANCH   7   8
ENDBRANCH   1   7
TORSDOF 3
