REMARK  Name = molecules/PDWUPXJEEYOOTR-IUAIQHPESA-N.pdb
REMARK                            x       y       z     vdW  Elec       q    Type
REMARK                         _______ _______ _______ _____ _____    ______ ____
ROOT
ATOM      1  C   LIG    1       -0.594  -0.857  -0.322  0.00  0.00    +0.231 C 
ENDROOT
BRANCH   1   2
ATOM      2  C   LIG    1        0.793  -0.381  -0.073  0.00  0.00    -0.013 A 
ATOM      3  C   LIG    1        1.804  -1.211   0.345  0.00  0.00    +0.021 A 
ATOM      4  C   LIG    1        3.069  -0.717   0.557  0.00  0.00    +0.014 A 
ATOM      5  I   LIG    1        4.668  -1.913   1.195  0.00  0.00    -0.044 I 
ATOM      6  C   LIG    1        3.315   0.625   0.347  0.00  0.00    +0.014 A 
ATOM      7  C   LIG    1        2.291   1.450  -0.073  0.00  0.00    +0.001 A 
ATOM      8  C   LIG    1        1.014   0.982  -0.294  0.00  0.00    +0.007 A 
ENDBRANCH   1   2
BRANCH   1   9
ATOM      9  N   LIG    1       -1.510   0.130   0.187  0.00  0.00    -0.272 N 
ATOM     10  H   LIG    1       -1.207   1.029   0.658  0.00  0.00    +0.258 HD
BRANCH   9  11
ATOM     11  C   LIG    1       -2.931  -0.027   0.096  0.00  0.00    +0.376 C 
ATOM     12  N   LIG    1       -3.644   0.925  -0.655  0.00  0.00    -0.289 N 
ATOM     13  H   LIG    1       -3.764   1.876  -0.279  0.00  0.00    +0.255 HD
ATOM     14  H   LIG    1       -4.038   0.668  -1.569  0.00  0.00    +0.255 HD
BRANCH  11  15
ATOM     15  N   LIG    1       -3.453  -1.021   0.704  0.00  0.00    -0.130 NA
ATOM     16  H   LIG    1       -2.898  -1.710   1.253  0.00  0.00    +0.306 HD
ENDBRANCH  11  15
ENDBRANCH   9  11
ENDBRANCH   1   9
TORSDOF 4
