REMARK  Name = molecules/PDYOTUCJOLELJU-CQSZACIVSA-N.pdb
REMARK                            x       y       z     vdW  Elec       q    Type
REMARK                         _______ _______ _______ _____ _____    ______ ____
ROOT
ATOM      1  C   LIG    1        1.333   0.452   0.140  0.00  0.00    -0.000 C 
ATOM      2  C   LIG    1        0.059   0.216   0.122  0.00  0.00    -0.074 C 
ATOM      3  C   LIG    1       -1.015   1.259   0.103  0.00  0.00    +0.059 C 
ATOM      4  C   LIG    1       -2.278   0.519   0.547  0.00  0.00    +0.106 C 
ATOM      5  C   LIG    1       -2.675  -0.395  -0.556  0.00  0.00    -0.043 C 
ATOM      6  N   LIG    1       -1.582  -1.290  -0.848  0.00  0.00    +0.380 N 
ATOM      7  C   LIG    1       -2.110  -2.641  -0.840  0.00  0.00    -0.092 C 
ATOM      8  C   LIG    1       -1.048  -1.069  -2.187  0.00  0.00    -0.092 C 
ATOM      9  C   LIG    1       -0.467  -1.186   0.075  0.00  0.00    -0.044 C 
ENDROOT
BRANCH   1  10
ATOM     10  C   LIG    1        2.349  -0.629   0.161  0.00  0.00    +0.020 A 
ATOM     11  C   LIG    1        2.386  -1.763   0.923  0.00  0.00    +0.016 A 
ATOM     12  C   LIG    1        3.412  -2.597   0.749  0.00  0.00    +0.008 A 
ATOM     13  C   LIG    1        4.357  -2.256  -0.181  0.00  0.00    +0.046 A 
ATOM     14  S   LIG    1        3.777  -0.773  -0.787  0.00  0.00    -0.097 S 
ENDBRANCH   1  10
BRANCH   1  15
ATOM     15  C   LIG    1        1.824   1.843   0.149  0.00  0.00    +0.020 A 
ATOM     16  S   LIG    1        1.333   3.200   1.059  0.00  0.00    -0.097 S 
ATOM     17  C   LIG    1        2.440   4.352   0.472  0.00  0.00    +0.046 A 
ATOM     18  C   LIG    1        3.176   3.636  -0.433  0.00  0.00    +0.008 A 
ATOM     19  C   LIG    1        2.860   2.347  -0.600  0.00  0.00    +0.016 A 
ENDBRANCH   1  15
BRANCH   4  20
ATOM     20  O   LIG    1       -3.271   1.396   0.943  0.00  0.00    -0.381 OA
ATOM     21  C   LIG    1       -3.609   1.310   2.269  0.00  0.00    +0.194 C 
ENDBRANCH   4  20
TORSDOF 3
