REMARK  Name = molecules/PFAXACNYGZVKMX-UHFFFAOYSA-N.pdb
REMARK                            x       y       z     vdW  Elec       q    Type
REMARK                         _______ _______ _______ _____ _____    ______ ____
ROOT
ATOM      1  N   LIG    1       -0.652   0.231  -0.455  0.00  0.00    -0.297 N 
ATOM      2  C   LIG    1       -1.291  -0.986  -0.066  0.00  0.00    +0.045 C 
ATOM      3  C   LIG    1       -2.565  -1.099   0.416  0.00  0.00    +0.034 C 
ATOM      4  C   LIG    1       -3.110  -2.274   0.773  0.00  0.00    +0.013 C 
ATOM      5  C   LIG    1       -2.435  -3.463   0.685  0.00  0.00    -0.017 C 
ATOM      6  C   LIG    1       -1.150  -3.407   0.206  0.00  0.00    +0.047 C 
ATOM      7  S   LIG    1       -3.584   0.347   0.579  0.00  0.00    -0.086 S 
ATOM      8  C   LIG    1       -2.557   1.726   0.053  0.00  0.00    +0.034 A 
ATOM      9  C   LIG    1       -3.145   2.949   0.138  0.00  0.00    +0.017 A 
ATOM     10  C   LIG    1       -2.441   4.069  -0.232  0.00  0.00    +0.001 A 
ATOM     11  C   LIG    1       -1.158   3.908  -0.678  0.00  0.00    +0.002 A 
ATOM     12  C   LIG    1       -0.562   2.655  -0.762  0.00  0.00    +0.024 A 
ATOM     13  C   LIG    1       -0.594  -2.197  -0.160  0.00  0.00    +0.006 C 
ATOM     14  C   LIG    1       -1.272   1.508  -0.388  0.00  0.00    +0.048 A 
ENDROOT
BRANCH   1  15
ATOM     15  C   LIG    1        0.733   0.175  -0.949  0.00  0.00    +0.126 C 
BRANCH  15  16
ATOM     16  C   LIG    1        1.731   0.043   0.176  0.00  0.00    +0.103 C 
BRANCH  16  18
ATOM     17  C   LIG    1        4.066  -0.152   0.698  0.00  0.00    +0.104 C 
ATOM     18  N   LIG    1        3.096  -0.027  -0.356  0.00  0.00    -0.307 NA
ATOM     19  C   LIG    1        3.236  -1.221  -1.198  0.00  0.00    +0.104 C 
ENDBRANCH  16  18
ENDBRANCH  15  16
ENDBRANCH   1  15
TORSDOF 3
