REMARK  Name = molecules/PFENFDGYVLAFBR-UHFFFAOYSA-N.pdb
REMARK                            x       y       z     vdW  Elec       q    Type
REMARK                         _______ _______ _______ _____ _____    ______ ____
ROOT
ATOM      1  C   LIG    1       -2.293  -0.932   0.084  0.00  0.00    +0.090 A 
ATOM      2  C   LIG    1       -1.083  -0.318   0.183  0.00  0.00    -0.019 A 
ATOM      3  C   LIG    1        0.005  -1.119   0.344  0.00  0.00    +0.010 A 
ATOM      4  C   LIG    1        1.430  -0.620   0.472  0.00  0.00    +0.127 C 
ATOM      5  N   LIG    1        1.523   0.748   0.044  0.00  0.00    -0.293 NA
ATOM      6  C   LIG    1        0.457   1.448   0.785  0.00  0.00    +0.090 C 
ATOM      7  S   LIG    1       -0.663  -2.699   0.356  0.00  0.00    -0.077 S 
ATOM      8  C   LIG    1       -0.851   1.198   0.130  0.00  0.00    +0.052 C 
ATOM      9  C   LIG    1       -2.296  -2.301   0.157  0.00  0.00    +0.078 A 
ENDROOT
BRANCH   9  10
ATOM     10  N   LIG    1       -3.450  -3.180   0.079  0.00  0.00    -0.352 N 
ATOM     11  H   LIG    1       -3.741  -3.809   0.838  0.00  0.00    +0.143 HD
ATOM     12  H   LIG    1       -3.974  -3.133  -0.814  0.00  0.00    +0.143 HD
ENDBRANCH   9  10
BRANCH   1  13
ATOM     13  C   LIG    1       -3.584  -0.195  -0.101  0.00  0.00    +0.342 C 
ATOM     14  O   LIG    1       -3.640   1.056  -0.177  0.00  0.00    -0.245 OA
BRANCH  13  15
ATOM     15  O   LIG    1       -4.776  -0.864  -0.197  0.00  0.00    -0.461 OA
BRANCH  15  16
ATOM     16  C   LIG    1       -5.995  -0.169  -0.372  0.00  0.00    +0.229 C 
ATOM     17  C   LIG    1       -5.911   0.610  -1.643  0.00  0.00    +0.048 C 
ENDBRANCH  15  16
ENDBRANCH  13  15
ENDBRANCH   1  13
BRANCH   5  18
ATOM     18  C   LIG    1        2.748   1.370   0.419  0.00  0.00    +0.120 C 
BRANCH  18  19
ATOM     19  C   LIG    1        3.970   0.780  -0.126  0.00  0.00    -0.033 A 
ATOM     20  C   LIG    1        5.144   1.001   0.599  0.00  0.00    +0.005 A 
ATOM     21  C   LIG    1        6.327   0.474   0.132  0.00  0.00    +0.000 A 
ATOM     22  C   LIG    1        6.333  -0.265  -1.048  0.00  0.00    +0.000 A 
ATOM     23  C   LIG    1        5.162  -0.471  -1.747  0.00  0.00    +0.000 A 
ATOM     24  C   LIG    1        3.976   0.056  -1.282  0.00  0.00    +0.005 A 
ENDBRANCH  18  19
ENDBRANCH   5  18
TORSDOF 6
