REMARK  Name = molecules/PFOYFBYIHCVQGB-XCCFGPONSA-N.pdb
REMARK                            x       y       z     vdW  Elec       q    Type
REMARK                         _______ _______ _______ _____ _____    ______ ____
ROOT
ATOM      1  O   LIG    1       -0.012  -0.730  -0.995  0.00  0.00    +0.000 OA
ENDROOT
BRANCH   1   2
ATOM      2 SB   LIG    1        1.747  -0.843  -0.071  0.00  0.00    +0.000 Sb
ATOM      3  O   LIG    1        1.733  -1.862   1.405  0.00  0.00    +0.000 OA
BRANCH   2   4
ATOM      4  O   LIG    1        2.505   1.013   0.358  0.00  0.00    +0.000 OA
BRANCH   4   5
ATOM      5  C   LIG    1        3.052   1.482  -0.822  0.00  0.00    +0.000 C 
BRANCH   5   6
ATOM      6  C   LIG    1        3.552   2.858  -0.556  0.00  0.00    +0.000 C 
ATOM      7  O   LIG    1        3.450   3.409   0.567  0.00  0.00    +0.000 OA
BRANCH   6   8
ATOM      8  O   LIG    1        4.157   3.582  -1.569  0.00  0.00    +0.000 OA
ATOM      9  H   LIG    1        4.847   4.301  -1.349  0.00  0.00    +0.000 HD
ENDBRANCH   6   8
ENDBRANCH   5   6
BRANCH   5  10
ATOM     10  C   LIG    1        4.075   0.668  -1.468  0.00  0.00    +0.000 C 
BRANCH  10  11
ATOM     11  O   LIG    1        5.322   1.330  -1.363  0.00  0.00    +0.000 OA
ATOM     12  H   LIG    1        6.071   0.702  -1.480  0.00  0.00    +0.000 HD
ENDBRANCH  10  11
BRANCH  10  13
ATOM     13  C   LIG    1        4.288  -0.720  -1.017  0.00  0.00    +0.000 C 
ATOM     14  O   LIG    1        3.210  -1.585  -1.306  0.00  0.00    +0.000 OA
BRANCH  13  15
ATOM     15  C   LIG    1        4.652  -0.885   0.415  0.00  0.00    +0.000 C 
BRANCH  15  16
ATOM     16  O   LIG    1        5.708  -0.067   0.783  0.00  0.00    +0.000 OA
ATOM     17  H   LIG    1        5.408   0.743   1.264  0.00  0.00    +0.000 HD
ENDBRANCH  15  16
BRANCH  15  18
ATOM     18  C   LIG    1        5.141  -2.326   0.624  0.00  0.00    +0.000 C 
BRANCH  18  19
ATOM     19  O   LIG    1        5.453  -2.407   1.995  0.00  0.00    +0.000 OA
ATOM     20  H   LIG    1        6.143  -3.070   2.184  0.00  0.00    +0.000 HD
ENDBRANCH  18  19
ENDBRANCH  15  18
ENDBRANCH  13  15
ENDBRANCH  10  13
ENDBRANCH   5  10
ENDBRANCH   4   5
ENDBRANCH   2   4
ENDBRANCH   1   2
BRANCH   1  21
ATOM     21 SB   LIG    1       -1.456  -0.557   0.389  0.00  0.00    +0.000 Sb
ATOM     22  O   LIG    1       -0.911  -1.219   1.997  0.00  0.00    +0.000 OA
BRANCH  21  23
ATOM     23  O   LIG    1       -1.972   1.389   0.684  0.00  0.00    +0.000 OA
BRANCH  23  24
ATOM     24  C   LIG    1       -3.281   1.370   1.165  0.00  0.00    +0.000 C 
BRANCH  24  25
ATOM     25  C   LIG    1       -3.756   2.743   1.477  0.00  0.00    +0.000 C 
ATOM     26  O   LIG    1       -4.917   2.920   1.923  0.00  0.00    +0.000 OA
BRANCH  25  27
ATOM     27  O   LIG    1       -2.929   3.825   1.279  0.00  0.00    +0.000 OA
ATOM     28  H   LIG    1       -3.269   4.775   1.193  0.00  0.00    +0.000 HD
ENDBRANCH  25  27
ENDBRANCH  24  25
BRANCH  24  29
ATOM     29  C   LIG    1       -4.222   0.623   0.257  0.00  0.00    +0.000 C 
BRANCH  29  30
ATOM     30  O   LIG    1       -3.974   0.979  -1.065  0.00  0.00    +0.000 OA
ATOM     31  H   LIG    1       -4.389   1.870  -1.253  0.00  0.00    +0.000 HD
ENDBRANCH  29  30
BRANCH  29  32
ATOM     32  C   LIG    1       -4.209  -0.854   0.477  0.00  0.00    +0.000 C 
ATOM     33  O   LIG    1       -3.168  -1.499  -0.190  0.00  0.00    +0.000 OA
BRANCH  32  34
ATOM     34  C   LIG    1       -5.545  -1.504   0.183  0.00  0.00    +0.000 C 
BRANCH  34  35
ATOM     35  O   LIG    1       -5.497  -2.833   0.601  0.00  0.00    +0.000 OA
ATOM     36  H   LIG    1       -4.829  -2.941   1.342  0.00  0.00    +0.000 HD
ENDBRANCH  34  35
BRANCH  34  37
ATOM     37  C   LIG    1       -5.852  -1.500  -1.298  0.00  0.00    +0.000 C 
BRANCH  37  38
ATOM     38  O   LIG    1       -4.830  -2.197  -1.938  0.00  0.00    +0.000 OA
ATOM     39  H   LIG    1       -5.158  -2.984  -2.446  0.00  0.00    +0.000 HD
ENDBRANCH  37  38
ENDBRANCH  34  37
ENDBRANCH  32  34
ENDBRANCH  29  32
ENDBRANCH  24  29
ENDBRANCH  23  24
ENDBRANCH  21  23
ENDBRANCH   1  21
TORSDOF 24
