REMARK  Name = molecules/PHIQHXFUZVPYII-ZCFIWIBFSA-N.pdb
REMARK                            x       y       z     vdW  Elec       q    Type
REMARK                         _______ _______ _______ _____ _____    ______ ____
ROOT
ATOM      1  C   LIG    1        1.133  -0.095  -0.213  0.00  0.00    +0.109 C 
ENDROOT
BRANCH   1   2
ATOM      2  O   LIG    1        1.166  -1.370   0.346  0.00  0.00    -0.393 OA
ATOM      3  H   LIG    1        1.533  -1.375   1.264  0.00  0.00    +0.210 HD
ENDBRANCH   1   2
BRANCH   1   4
ATOM      4  C   LIG    1       -0.106   0.663   0.207  0.00  0.00    -0.044 C 
BRANCH   4   6
ATOM      5  C   LIG    1       -1.375  -0.180  -1.632  0.00  0.00    -0.093 C 
ATOM      6  N   LIG    1       -1.315  -0.004  -0.198  0.00  0.00    +0.376 N 
ATOM      7  C   LIG    1       -1.438  -1.225   0.531  0.00  0.00    -0.093 C 
ATOM      8  C   LIG    1       -2.439   0.847   0.168  0.00  0.00    -0.093 C 
ENDBRANCH   4   6
ENDBRANCH   1   4
BRANCH   1   9
ATOM      9  C   LIG    1        2.334   0.727   0.257  0.00  0.00    +0.154 C 
BRANCH   9  10
ATOM     10  C   LIG    1        3.564  -0.002  -0.147  0.00  0.00    +0.358 C 
ATOM     11  O   LIG    1        4.706   0.468   0.125  0.00  0.00    -0.246 OA
ATOM     12  O   LIG    1        3.510  -1.217  -0.833  0.00  0.00    -0.246 OA
ENDBRANCH   9  10
ENDBRANCH   1   9
TORSDOF 5
