REMARK  Name = molecules/PHLBKPHSAVXXEF-UHFFFAOYSA-N.pdb
REMARK                            x       y       z     vdW  Elec       q    Type
REMARK                         _______ _______ _______ _____ _____    ______ ____
ROOT
ATOM      1  C   LIG    1       -0.723  -0.857  -0.968  0.00  0.00    +0.086 C 
ENDROOT
BRANCH   1   2
ATOM      2  N   LIG    1        0.595  -0.526  -0.575  0.00  0.00    -0.299 NA
ATOM      3  C   LIG    1        1.157  -1.188   0.507  0.00  0.00    +0.103 C 
ATOM      4  C   LIG    1        2.085  -0.302   1.349  0.00  0.00    +0.120 C 
ATOM      5  N   LIG    1        2.903   0.498   0.431  0.00  0.00    -0.327 N 
ATOM      6  C   LIG    1        2.109   1.320  -0.488  0.00  0.00    +0.120 C 
ATOM      7  C   LIG    1        1.363   0.334  -1.361  0.00  0.00    +0.103 C 
BRANCH   5   8
ATOM      8  C   LIG    1        4.318   0.492   0.432  0.00  0.00    +0.031 A 
ATOM      9  C   LIG    1        5.046   0.001   1.490  0.00  0.00    +0.023 A 
ATOM     10  C   LIG    1        6.435   0.025   1.456  0.00  0.00    +0.003 A 
ATOM     11  C   LIG    1        7.150   0.528   0.395  0.00  0.00    +0.020 A 
ATOM     12  C   LIG    1        6.418   1.018  -0.661  0.00  0.00    +0.043 A 
ATOM     13 CL   LIG    1        7.245   1.683  -2.067  0.00  0.00    -0.083 Cl
ATOM     14  C   LIG    1        5.023   0.998  -0.636  0.00  0.00    +0.043 A 
ENDBRANCH   5   8
ENDBRANCH   1   2
BRANCH   1  15
ATOM     15  C   LIG    1       -1.248  -0.098  -2.146  0.00  0.00    +0.039 C 
BRANCH  15  16
ATOM     16  C   LIG    1       -2.638  -0.547  -2.461  0.00  0.00    +0.150 C 
BRANCH  16  26
ATOM     17  O   LIG    1       -3.447  -2.391  -0.226  0.00  0.00    -0.244 OA
ATOM     18  C   LIG    1       -3.900  -1.214  -0.388  0.00  0.00    +0.351 A 
ATOM     19  N   LIG    1       -4.805  -0.670   0.446  0.00  0.00    -0.251 N 
ATOM     20  C   LIG    1       -5.439  -1.108   1.558  0.00  0.00    +0.098 A 
ATOM     21  C   LIG    1       -6.347  -0.338   2.253  0.00  0.00    +0.018 A 
ATOM     22  C   LIG    1       -6.625   0.934   1.797  0.00  0.00    +0.005 A 
ATOM     23  C   LIG    1       -5.969   1.356   0.667  0.00  0.00    +0.049 A 
ATOM     24  C   LIG    1       -5.056   0.566  -0.020  0.00  0.00    +0.162 A 
ATOM     25  N   LIG    1       -4.302   0.739  -1.119  0.00  0.00    -0.149 NA
ATOM     26  N   LIG    1       -3.573  -0.355  -1.370  0.00  0.00    -0.212 N 
ENDBRANCH  16  26
ENDBRANCH  15  16
ENDBRANCH   1  15
TORSDOF 5
