REMARK  Name = molecules/PHTMLLGDZBZXMW-AERCQKQUSA-N.pdb
REMARK                            x       y       z     vdW  Elec       q    Type
REMARK                         _______ _______ _______ _____ _____    ______ ____
ROOT
ATOM      1  C   LIG    1       -1.617   0.324   0.602  0.00  0.00    +0.179 C 
ENDROOT
BRANCH   1   2
ATOM      2  C   LIG    1       -2.609  -0.675   1.058  0.00  0.00    -0.014 A 
ATOM      3  C   LIG    1       -2.293  -1.884   1.630  0.00  0.00    +0.006 A 
ATOM      4  C   LIG    1       -3.236  -2.808   2.050  0.00  0.00    +0.000 A 
ATOM      5  C   LIG    1       -4.565  -2.504   1.888  0.00  0.00    +0.000 A 
ATOM      6  C   LIG    1       -4.907  -1.305   1.321  0.00  0.00    +0.000 A 
ATOM      7  C   LIG    1       -3.964  -0.406   0.912  0.00  0.00    +0.006 A 
ENDBRANCH   1   2
BRANCH   1   8
ATOM      8  C   LIG    1       -2.270   1.305  -0.344  0.00  0.00    -0.014 A 
ATOM      9  C   LIG    1       -2.548   2.588   0.059  0.00  0.00    +0.006 A 
ATOM     10  C   LIG    1       -3.143   3.502  -0.785  0.00  0.00    +0.000 A 
ATOM     11  C   LIG    1       -3.466   3.112  -2.069  0.00  0.00    +0.000 A 
ATOM     12  C   LIG    1       -3.200   1.835  -2.499  0.00  0.00    +0.000 A 
ATOM     13  C   LIG    1       -2.600   0.936  -1.630  0.00  0.00    +0.006 A 
ENDBRANCH   1   8
BRANCH   1  14
ATOM     14  O   LIG    1       -0.631  -0.308  -0.108  0.00  0.00    -0.364 OA
BRANCH  14  15
ATOM     15  C   LIG    1        0.666  -0.050   0.333  0.00  0.00    +0.122 C 
ATOM     16  C   LIG    1        1.306  -1.314   0.749  0.00  0.00    +0.050 C 
ATOM     17  C   LIG    1        2.815  -1.322   0.682  0.00  0.00    +0.059 C 
ATOM     18  N   LIG    1        3.279  -0.010   0.377  0.00  0.00    -0.297 NA
ATOM     19  C   LIG    1        2.788   0.203  -0.949  0.00  0.00    +0.059 C 
ATOM     20  C   LIG    1        2.793  -1.142  -1.651  0.00  0.00    +0.020 C 
ATOM     21  C   LIG    1        3.194  -2.109  -0.556  0.00  0.00    +0.020 C 
ATOM     22  C   LIG    1        1.348   0.646  -0.825  0.00  0.00    +0.050 C 
BRANCH  18  23
ATOM     23  C   LIG    1        4.700   0.162   0.515  0.00  0.00    +0.081 C 
ATOM     24  C   LIG    1        5.085   1.582   0.170  0.00  0.00    +0.020 C 
ENDBRANCH  18  23
ENDBRANCH  14  15
ENDBRANCH   1  14
TORSDOF 5
