REMARK  Name = molecules/PHTUQLWOUWZIMZ-GZTJUZNOSA-N.pdb
REMARK                            x       y       z     vdW  Elec       q    Type
REMARK                         _______ _______ _______ _____ _____    ______ ____
ROOT
ATOM      1  C   LIG    1        0.139   2.740   1.299  0.00  0.00    +0.001 A 
ATOM      2  C   LIG    1       -0.001   1.372   1.206  0.00  0.00    +0.009 A 
ATOM      3  C   LIG    1       -0.998   0.939   0.388  0.00  0.00    -0.014 A 
ATOM      4  C   LIG    1       -0.966  -0.529   0.392  0.00  0.00    -0.013 C 
ATOM      5  C   LIG    1       -2.119  -1.469   0.490  0.00  0.00    -0.004 A 
ATOM      6  C   LIG    1       -1.642  -2.591   1.147  0.00  0.00    +0.009 A 
ATOM      7  C   LIG    1       -2.555  -3.601   1.299  0.00  0.00    +0.001 A 
ATOM      8  C   LIG    1       -3.846  -3.470   0.819  0.00  0.00    +0.001 A 
ATOM      9  C   LIG    1       -4.267  -2.333   0.177  0.00  0.00    +0.015 A 
ATOM     10  C   LIG    1       -3.372  -1.278  -0.002  0.00  0.00    +0.016 A 
ATOM     11  S   LIG    1       -4.101   0.103  -0.810  0.00  0.00    -0.120 S 
ATOM     12  C   LIG    1       -2.984   1.372  -1.238  0.00  0.00    +0.110 C 
ATOM     13  C   LIG    1        0.234  -1.033   0.229  0.00  0.00    -0.017 C 
ATOM     14  C   LIG    1       -1.879   1.714  -0.348  0.00  0.00    -0.030 A 
ATOM     15  C   LIG    1       -1.700   3.068  -0.221  0.00  0.00    +0.005 A 
ATOM     16  C   LIG    1       -0.701   3.608   0.593  0.00  0.00    +0.000 A 
ENDROOT
BRANCH  13  17
ATOM     17  C   LIG    1        1.414  -0.347   0.058  0.00  0.00    +0.043 C 
BRANCH  17  18
ATOM     18  C   LIG    1        2.389   0.598  -0.061  0.00  0.00    +0.088 C 
BRANCH  18  19
ATOM     19  N   LIG    1        3.732   0.018  -0.392  0.00  0.00    -0.308 NA
ATOM     20  C   LIG    1        4.735   0.977  -0.517  0.00  0.00    +0.104 C 
ATOM     21  C   LIG    1        3.645  -0.973  -1.409  0.00  0.00    +0.104 C 
ENDBRANCH  18  19
ENDBRANCH  17  18
ENDBRANCH  13  17
TORSDOF 3
