REMARK  Name = molecules/PHXJVRSECIGDHY-UHFFFAOYSA-N.pdb
REMARK                            x       y       z     vdW  Elec       q    Type
REMARK                         _______ _______ _______ _____ _____    ______ ____
ROOT
ATOM      1  C   LIG    1        0.600  -0.239  -1.945  0.00  0.00    +0.248 C 
ATOM      2  N   LIG    1        0.201  -0.115  -0.603  0.00  0.00    -0.281 N 
ATOM      3  H   LIG    1        0.935  -0.156   0.175  0.00  0.00    +0.155 HD
ATOM      4  O   LIG    1       -0.134  -0.219  -2.958  0.00  0.00    -0.270 OA
ENDROOT
BRANCH   1   7
ATOM      5  C   LIG    1        4.377  -0.233  -1.560  0.00  0.00    +0.029 A 
ATOM      6  C   LIG    1        3.010  -0.058  -1.313  0.00  0.00    +0.030 A 
ATOM      7  C   LIG    1        2.053  -0.415  -2.209  0.00  0.00    +0.038 A 
ATOM      8  C   LIG    1        2.470  -0.977  -3.420  0.00  0.00    +0.013 A 
ATOM      9  C   LIG    1        3.812  -1.147  -3.659  0.00  0.00    +0.005 A 
ATOM     10  C   LIG    1        4.781  -0.785  -2.752  0.00  0.00    -0.035 A 
ATOM     11  C   LIG    1        6.228  -0.987  -3.054  0.00  0.00    +0.045 C 
BRANCH   5  13
ATOM     12  C   LIG    1        6.134   0.485   0.275  0.00  0.00    -0.040 C 
ATOM     13  C   LIG    1        5.327   0.168  -0.567  0.00  0.00    -0.059 C 
BRANCH  12  21
ATOM     14  N   LIG    1        8.433   0.726   1.257  0.00  0.00    -0.205 N 
ATOM     15  C   LIG    1        8.954   1.184   2.413  0.00  0.00    +0.155 A 
ATOM     16  N   LIG    1        7.961   1.604   3.201  0.00  0.00    -0.233 NA
ATOM     17  C   LIG    1        6.809   1.400   2.517  0.00  0.00    +0.150 A 
ATOM     18  C   LIG    1       10.322   1.143   2.570  0.00  0.00    +0.050 A 
ATOM     19  C   LIG    1       11.151   0.651   1.586  0.00  0.00    +0.025 A 
ATOM     20  C   LIG    1       10.556   0.193   0.419  0.00  0.00    +0.133 A 
ATOM     21  C   LIG    1        7.088   0.846   1.286  0.00  0.00    +0.136 A 
ATOM     22  N   LIG    1        9.216   0.254   0.311  0.00  0.00    -0.172 NA
ENDBRANCH  12  21
ENDBRANCH   5  13
ENDBRANCH   1   7
BRANCH   2  23
ATOM     23  C   LIG    1       -1.131   0.059  -0.163  0.00  0.00    +0.034 A 
ATOM     24  C   LIG    1       -1.406   0.312   1.187  0.00  0.00    +0.036 A 
ATOM     25  C   LIG    1       -2.671   0.498   1.690  0.00  0.00    +0.061 A 
ATOM     26  C   LIG    1       -3.730   0.431   0.815  0.00  0.00    -0.022 A 
ATOM     27  C   LIG    1       -3.490   0.183  -0.522  0.00  0.00    +0.007 A 
ATOM     28  C   LIG    1       -2.182  -0.005  -1.016  0.00  0.00    +0.023 A 
BRANCH  25  29
ATOM     29  C   LIG    1       -2.896   0.750   3.087  0.00  0.00    +0.418 C 
ATOM     30  F   LIG    1       -1.669   0.607   3.756  0.00  0.00    -0.166 F 
ATOM     31  F   LIG    1       -3.688  -0.261   3.655  0.00  0.00    -0.166 F 
ATOM     32  F   LIG    1       -3.354   1.970   3.458  0.00  0.00    -0.166 F 
ENDBRANCH  25  29
BRANCH  26  33
ATOM     33  C   LIG    1       -5.067   0.672   1.290  0.00  0.00    +0.120 C 
BRANCH  33  34
ATOM     34  N   LIG    1       -6.069   0.473   0.248  0.00  0.00    -0.296 NA
ATOM     35  C   LIG    1       -7.356   1.025   0.675  0.00  0.00    +0.100 C 
ATOM     36  C   LIG    1       -8.475   0.608  -0.215  0.00  0.00    +0.099 C 
ATOM     37  N   LIG    1       -8.547  -0.769  -0.555  0.00  0.00    -0.303 NA
ATOM     38  C   LIG    1       -9.080  -1.625   0.449  0.00  0.00    +0.105 C 
ATOM     39  C   LIG    1       -7.264  -1.206  -1.069  0.00  0.00    +0.099 C 
ATOM     40  C   LIG    1       -6.267  -0.956   0.006  0.00  0.00    +0.100 C 
ENDBRANCH  33  34
ENDBRANCH  26  33
ENDBRANCH   2  23
TORSDOF 7
