REMARK  Name = molecules/PIDANAQULIKBQS-RNUIGHNZSA-N.pdb
REMARK                            x       y       z     vdW  Elec       q    Type
REMARK                         _______ _______ _______ _____ _____    ______ ____
ROOT
ATOM      1  C   LIG    1       -1.352  -1.082  -1.128  0.00  0.00    +0.015 C 
ATOM      2  C   LIG    1       -1.361   0.300  -0.599  0.00  0.00    +0.014 C 
ATOM      3  C   LIG    1       -0.523   0.467   0.668  0.00  0.00    +0.003 C 
ATOM      4  C   LIG    1       -1.488   0.099   1.723  0.00  0.00    +0.011 C 
ATOM      5  C   LIG    1       -2.581   1.117   1.330  0.00  0.00    +0.026 C 
ATOM      6  C   LIG    1       -3.807   1.033   2.121  0.00  0.00    +0.011 C 
ATOM      7  C   LIG    1        0.730  -0.302   0.524  0.00  0.00    +0.004 C 
ATOM      8  C   LIG    1        1.467  -0.543   1.796  0.00  0.00    +0.009 C 
ATOM      9  C   LIG    1        2.662  -1.460   1.461  0.00  0.00    +0.032 C 
ATOM     10  C   LIG    1        3.511  -0.556   0.576  0.00  0.00    -0.056 C 
ATOM     11  C   LIG    1        4.686  -0.209   0.986  0.00  0.00    +0.051 C 
ATOM     12  C   LIG    1        5.535   0.706   0.235  0.00  0.00    +0.179 C 
ATOM     13  O   LIG    1        6.675   1.015   0.673  0.00  0.00    -0.288 OA
ATOM     14  C   LIG    1        5.006   1.221  -1.007  0.00  0.00    +0.047 C 
ATOM     15  C   LIG    1        3.801   0.840  -1.392  0.00  0.00    -0.012 C 
ATOM     16  C   LIG    1        2.913  -0.079  -0.682  0.00  0.00    +0.017 C 
ATOM     17  C   LIG    1        2.799  -1.319  -1.592  0.00  0.00    +0.021 C 
ATOM     18  C   LIG    1        1.571   0.542  -0.458  0.00  0.00    +0.072 C 
ATOM     19  C   LIG    1        0.782   0.761  -1.679  0.00  0.00    +0.138 C 
ATOM     20  O   LIG    1        1.305   0.598  -2.765  0.00  0.00    -0.297 OA
ATOM     21  C   LIG    1       -2.684   0.844  -0.151  0.00  0.00    +0.134 C 
ATOM     22  C   LIG    1       -0.647   1.178  -1.616  0.00  0.00    +0.084 C 
ENDROOT
BRANCH  21  23
ATOM     23  C   LIG    1       -3.869   0.105  -0.551  0.00  0.00    +0.190 C 
ATOM     24  O   LIG    1       -4.620   0.634  -1.396  0.00  0.00    -0.292 OA
BRANCH  23  25
ATOM     25  C   LIG    1       -4.332  -1.212  -0.093  0.00  0.00    +0.233 C 
BRANCH  25  26
ATOM     26  O   LIG    1       -5.549  -1.605  -0.707  0.00  0.00    -0.387 OA
ATOM     27  H   LIG    1       -5.676  -2.564  -0.522  0.00  0.00    +0.210 HD
ENDBRANCH  25  26
ENDBRANCH  23  25
ENDBRANCH  21  23
BRANCH  21  28
ATOM     28  O   LIG    1       -2.742   2.133  -0.756  0.00  0.00    -0.380 OA
ATOM     29  H   LIG    1       -3.521   2.213  -1.333  0.00  0.00    +0.211 HD
ENDBRANCH  21  28
TORSDOF 4
