REMARK  Name = molecules/PIDFDZJZLOTZTM-KHVQSSSXSA-N.pdb
REMARK                            x       y       z     vdW  Elec       q    Type
REMARK                         _______ _______ _______ _____ _____    ______ ____
ROOT
ATOM      1  N   LIG    1        0.200  -1.254  -0.167  0.00  0.00    -0.316 N 
ATOM      2  C   LIG    1       -0.494  -0.589   0.889  0.00  0.00    +0.104 C 
ATOM      3  C   LIG    1        0.417   0.612   1.227  0.00  0.00    +0.029 C 
ATOM      4  C   LIG    1        0.889   0.987  -0.131  0.00  0.00    +0.029 C 
ATOM      5  C   LIG    1        0.995  -0.318  -0.927  0.00  0.00    +0.104 C 
ENDROOT
BRANCH   1   6
ATOM      6  C   LIG    1        0.117  -2.657  -0.385  0.00  0.00    +0.031 A 
ATOM      7  C   LIG    1       -0.390  -3.530   0.549  0.00  0.00    +0.023 A 
ATOM      8  C   LIG    1       -0.427  -4.896   0.318  0.00  0.00    +0.006 A 
ATOM      9  C   LIG    1        0.043  -5.407  -0.849  0.00  0.00    -0.042 A 
ATOM     10  C   LIG    1        0.570  -4.569  -1.839  0.00  0.00    +0.006 A 
ATOM     11  C   LIG    1        0.582  -3.196  -1.556  0.00  0.00    +0.023 A 
BRANCH   9  12
ATOM     12  C   LIG    1        0.018  -6.874  -1.067  0.00  0.00    -0.013 C 
ATOM     13  C   LIG    1       -0.782  -7.565   0.030  0.00  0.00    +0.015 C 
ATOM     14  C   LIG    1        1.478  -7.350  -0.996  0.00  0.00    +0.015 C 
ATOM     15  C   LIG    1       -0.555  -7.200  -2.416  0.00  0.00    +0.015 C 
ENDBRANCH   9  12
ENDBRANCH   1   6
BRANCH   2  16
ATOM     16  C   LIG    1       -1.855  -0.066   0.609  0.00  0.00    -0.027 A 
ATOM     17  C   LIG    1       -2.839  -0.138   1.609  0.00  0.00    +0.007 A 
ATOM     18  C   LIG    1       -4.076   0.441   1.463  0.00  0.00    +0.023 A 
ATOM     19  C   LIG    1       -4.447   1.139   0.322  0.00  0.00    +0.033 A 
ATOM     20  C   LIG    1       -3.470   1.204  -0.676  0.00  0.00    +0.023 A 
ATOM     21  C   LIG    1       -2.220   0.615  -0.525  0.00  0.00    +0.007 A 
BRANCH  19  22
ATOM     22  N   LIG    1       -5.640   1.863   0.161  0.00  0.00    -0.284 N 
ATOM     23  C   LIG    1       -6.912   1.631   0.736  0.00  0.00    +0.238 C 
ATOM     24  O   LIG    1       -7.102   0.663   1.466  0.00  0.00    -0.273 OA
ATOM     25  H   LIG    1       -5.571   2.708  -0.490  0.00  0.00    +0.155 HD
BRANCH  23  26
ATOM     26  C   LIG    1       -7.962   2.611   0.417  0.00  0.00    +0.162 C 
ATOM     27  C   LIG    1       -7.911   3.740   1.509  0.00  0.00    +0.033 C 
ATOM     28  C   LIG    1       -8.456   2.918   2.677  0.00  0.00    +0.021 C 
ATOM     29  C   LIG    1       -9.478   1.965   2.043  0.00  0.00    +0.109 C 
ATOM     30  N   LIG    1       -9.307   2.198   0.630  0.00  0.00    -0.288 N 
ATOM     31  C   LIG    1      -10.280   2.144  -0.411  0.00  0.00    +0.237 C 
ATOM     32  O   LIG    1       -9.945   2.338  -1.608  0.00  0.00    -0.274 OA
BRANCH  31  33
ATOM     33  C   LIG    1      -11.734   1.873  -0.190  0.00  0.00    +0.165 C 
BRANCH  33  34
ATOM     34  N   LIG    1      -12.490   2.701  -1.152  0.00  0.00    -0.270 N 
ATOM     35  C   LIG    1      -13.341   3.712  -0.660  0.00  0.00    +0.401 C 
ATOM     36  O   LIG    1      -13.454   3.895   0.588  0.00  0.00    -0.226 OA
ATOM     37  H   LIG    1      -12.396   2.554  -2.186  0.00  0.00    +0.153 HD
BRANCH  35  38
ATOM     38  O   LIG    1      -14.057   4.510  -1.516  0.00  0.00    -0.454 OA
ATOM     39  C   LIG    1      -14.928   5.550  -1.106  0.00  0.00    +0.282 C 
ENDBRANCH  35  38
ENDBRANCH  33  34
BRANCH  33  40
ATOM     40  C   LIG    1      -12.118   0.440  -0.450  0.00  0.00    +0.012 C 
ATOM     41  C   LIG    1      -11.530  -0.537   0.549  0.00  0.00    +0.009 C 
ATOM     42  C   LIG    1      -11.807   0.054  -1.866  0.00  0.00    +0.009 C 
ENDBRANCH  33  40
ENDBRANCH  31  33
ENDBRANCH  23  26
ENDBRANCH  19  22
ENDBRANCH   2  16
BRANCH   5  43
ATOM     43  C   LIG    1        2.418  -0.653  -1.108  0.00  0.00    -0.027 A 
ATOM     44  C   LIG    1        3.237  -0.900  -0.063  0.00  0.00    +0.007 A 
ATOM     45  C   LIG    1        4.600  -1.149  -0.222  0.00  0.00    +0.023 A 
ATOM     46  C   LIG    1        5.145  -1.149  -1.480  0.00  0.00    +0.033 A 
ATOM     47  C   LIG    1        4.334  -0.904  -2.571  0.00  0.00    +0.023 A 
ATOM     48  C   LIG    1        2.986  -0.656  -2.400  0.00  0.00    +0.007 A 
BRANCH  46  49
ATOM     49  N   LIG    1        6.556  -1.306  -1.730  0.00  0.00    -0.284 N 
ATOM     50  C   LIG    1        7.517  -0.759  -0.845  0.00  0.00    +0.238 C 
ATOM     51  O   LIG    1        7.088  -0.131   0.171  0.00  0.00    -0.273 OA
ATOM     52  H   LIG    1        6.892  -1.823  -2.558  0.00  0.00    +0.155 HD
BRANCH  50  53
ATOM     53  C   LIG    1        8.987  -0.876  -1.042  0.00  0.00    +0.162 C 
ATOM     54  N   LIG    1        9.687   0.003  -0.080  0.00  0.00    -0.288 N 
ATOM     55  C   LIG    1        9.780  -0.725   1.144  0.00  0.00    +0.109 C 
ATOM     56  C   LIG    1        9.769  -2.172   0.786  0.00  0.00    +0.021 C 
ATOM     57  C   LIG    1       10.131   1.295  -0.447  0.00  0.00    +0.237 C 
ATOM     58  O   LIG    1        9.929   1.712  -1.644  0.00  0.00    -0.274 OA
ATOM     59  C   LIG    1        9.456  -2.255  -0.678  0.00  0.00    +0.033 C 
BRANCH  57  60
ATOM     60  C   LIG    1       10.819   2.169   0.503  0.00  0.00    +0.165 C 
BRANCH  60  61
ATOM     61  N   LIG    1       11.722   3.091  -0.237  0.00  0.00    -0.270 N 
ATOM     62  C   LIG    1       13.097   3.146   0.081  0.00  0.00    +0.401 C 
ATOM     63  O   LIG    1       13.648   2.454   0.968  0.00  0.00    -0.226 OA
ATOM     64  H   LIG    1       11.344   3.702  -0.992  0.00  0.00    +0.153 HD
BRANCH  62  65
ATOM     65  O   LIG    1       13.902   4.031  -0.644  0.00  0.00    -0.454 OA
ATOM     66  C   LIG    1       15.287   4.117  -0.358  0.00  0.00    +0.282 C 
ENDBRANCH  62  65
ENDBRANCH  60  61
BRANCH  60  67
ATOM     67  C   LIG    1        9.864   3.085   1.264  0.00  0.00    +0.012 C 
ATOM     68  C   LIG    1        9.027   2.337   2.230  0.00  0.00    +0.009 C 
ATOM     69  C   LIG    1        9.103   4.002   0.340  0.00  0.00    +0.009 C 
ENDBRANCH  60  67
ENDBRANCH  57  60
ENDBRANCH  50  53
ENDBRANCH  46  49
ENDBRANCH   5  43
TORSDOF 16
