REMARK  Name = molecules/PIDSZXPFGCURGN-VIFPVBQESA-N.pdb
REMARK                            x       y       z     vdW  Elec       q    Type
REMARK                         _______ _______ _______ _____ _____    ______ ____
ROOT
ATOM      1 CL   LIG    1       -0.617   2.543  -0.707  0.00  0.00    -0.082 Cl
ATOM      2  C   LIG    1       -0.089   0.967  -0.212  0.00  0.00    +0.062 A 
ATOM      3  C   LIG    1       -1.023   0.001   0.069  0.00  0.00    +0.049 A 
ATOM      4  C   LIG    1       -0.548  -1.235   0.459  0.00  0.00    +0.025 A 
ATOM      5  C   LIG    1        0.803  -1.505   0.566  0.00  0.00    +0.006 A 
ATOM      6  C   LIG    1        1.722  -0.549   0.287  0.00  0.00    -0.032 A 
ATOM      7  C   LIG    1        1.268   0.693  -0.104  0.00  0.00    +0.026 A 
ENDROOT
BRANCH   3   8
ATOM      8  N   LIG    1       -2.434   0.250  -0.034  0.00  0.00    -0.321 N 
ATOM      9  C   LIG    1       -3.418  -0.760   0.273  0.00  0.00    +0.132 C 
ATOM     10  C   LIG    1       -4.734  -0.140   0.013  0.00  0.00    -0.011 C 
ATOM     11  C   LIG    1       -4.553   1.111  -0.383  0.00  0.00    -0.011 C 
ATOM     12  C   LIG    1       -3.115   1.431  -0.422  0.00  0.00    +0.132 C 
ENDBRANCH   3   8
BRANCH   6  13
ATOM     13  C   LIG    1        3.166  -0.866   0.410  0.00  0.00    +0.124 C 
ATOM     14  C   LIG    1        3.711   0.012   1.548  0.00  0.00    +0.024 C 
BRANCH  13  15
ATOM     15  C   LIG    1        3.912  -0.581  -0.824  0.00  0.00    +0.312 C 
ATOM     16  O   LIG    1        4.520  -1.490  -1.418  0.00  0.00    -0.250 OA
BRANCH  15  17
ATOM     17  O   LIG    1        3.942   0.698  -1.332  0.00  0.00    -0.480 OA
ATOM     18  H   LIG    1        4.380   1.427  -0.778  0.00  0.00    +0.295 HD
ENDBRANCH  15  17
ENDBRANCH  13  15
ENDBRANCH   6  13
TORSDOF 4
