REMARK  Name = molecules/PIWKPBJCKXDKJR-SFOWXEAESA-N.pdb
REMARK                            x       y       z     vdW  Elec       q    Type
REMARK                         _______ _______ _______ _____ _____    ______ ____
ROOT
ATOM      1  C   LIG    1        0.312  -0.513   0.445  0.00  0.00    +0.318 C 
ATOM      2 CL   LIG    1        0.606  -1.325   1.984  0.00  0.00    -0.081 Cl
ENDROOT
BRANCH   1   3
ATOM      3  C   LIG    1        1.594  -0.130  -0.259  0.00  0.00    +0.430 C 
ATOM      4  F   LIG    1        2.147   0.912   0.489  0.00  0.00    -0.167 F 
ATOM      5  F   LIG    1        2.473  -1.209  -0.322  0.00  0.00    -0.167 F 
ATOM      6  F   LIG    1        1.300   0.367  -1.495  0.00  0.00    -0.167 F 
ENDBRANCH   1   3
BRANCH   1   7
ATOM      7  O   LIG    1       -0.468   0.607   0.562  0.00  0.00    -0.294 OA
BRANCH   7   8
ATOM      8  C   LIG    1       -1.658   0.561  -0.128  0.00  0.00    +0.484 C 
ATOM      9  F   LIG    1       -2.763   0.796   0.669  0.00  0.00    -0.178 F 
ATOM     10  F   LIG    1       -1.593   1.589  -1.080  0.00  0.00    -0.178 F 
ENDBRANCH   7   8
ENDBRANCH   1   7
TORSDOF 3
