REMARK  Name = molecules/PJVWKTKQMONHTI-OAHLLOKOSA-N.pdb
REMARK                            x       y       z     vdW  Elec       q    Type
REMARK                         _______ _______ _______ _____ _____    ______ ____
ROOT
ATOM      1  C   LIG    1        0.310   0.242  -1.068  0.00  0.00    +0.087 A 
ATOM      2  C   LIG    1        0.996   0.566   0.085  0.00  0.00    +0.138 A 
ATOM      3  C   LIG    1        2.345   0.904  -0.068  0.00  0.00    +0.059 A 
ATOM      4  C   LIG    1        3.068   1.235   1.050  0.00  0.00    +0.015 A 
ATOM      5  C   LIG    1        4.411   1.578   0.948  0.00  0.00    +0.001 A 
ATOM      6  C   LIG    1        5.000   1.580  -0.299  0.00  0.00    +0.004 A 
ATOM      7  C   LIG    1        4.291   1.251  -1.431  0.00  0.00    +0.047 A 
ATOM      8  C   LIG    1        2.959   0.911  -1.328  0.00  0.00    +0.143 A 
ATOM      9  O   LIG    1        2.236   0.592  -2.359  0.00  0.00    -0.422 OA
ATOM     10  C   LIG    1        0.972   0.268  -2.270  0.00  0.00    +0.345 A 
ATOM     11  O   LIG    1        0.331  -0.031  -3.309  0.00  0.00    -0.245 OA
ENDROOT
BRANCH   2  12
ATOM     12  O   LIG    1        0.386   0.556   1.321  0.00  0.00    -0.506 OA
ATOM     13  H   LIG    1        0.774   0.765   2.185  0.00  0.00    +0.292 HD
ENDBRANCH   2  12
BRANCH   1  14
ATOM     14  C   LIG    1       -1.126  -0.113  -0.952  0.00  0.00    +0.067 C 
BRANCH  14  15
ATOM     15  C   LIG    1       -1.233  -1.337  -0.158  0.00  0.00    -0.039 A 
ATOM     16  C   LIG    1       -1.739  -1.385   1.108  0.00  0.00    +0.004 A 
ATOM     17  C   LIG    1       -1.817  -2.554   1.834  0.00  0.00    +0.000 A 
ATOM     18  C   LIG    1       -1.365  -3.728   1.261  0.00  0.00    +0.000 A 
ATOM     19  C   LIG    1       -0.845  -3.711  -0.025  0.00  0.00    +0.000 A 
ATOM     20  C   LIG    1       -0.786  -2.516  -0.717  0.00  0.00    +0.004 A 
ENDBRANCH  14  15
BRANCH  14  21
ATOM     21  C   LIG    1       -1.863   1.075  -0.436  0.00  0.00    +0.087 C 
BRANCH  21  22
ATOM     22  C   LIG    1       -3.323   0.835  -0.278  0.00  0.00    +0.131 C 
ATOM     23  C   LIG    1       -4.141   1.981   0.237  0.00  0.00    +0.086 C 
ATOM     24  O   LIG    1       -3.878  -0.199  -0.531  0.00  0.00    -0.298 OA
ENDBRANCH  21  22
ENDBRANCH  14  21
ENDBRANCH   1  14
TORSDOF 5
