REMARK  Name = molecules/PKVRCIRHQMSYJX-AIFWHQITSA-N.pdb
REMARK                            x       y       z     vdW  Elec       q    Type
REMARK                         _______ _______ _______ _____ _____    ______ ____
ROOT
ATOM      1  C   LIG    1        3.986   1.465   2.023  0.00  0.00    +0.162 A 
ATOM      2  C   LIG    1        4.340   2.813   2.026  0.00  0.00    +0.159 A 
ATOM      3  C   LIG    1        3.869   3.585   0.986  0.00  0.00    +0.053 A 
ATOM      4  C   LIG    1        3.091   3.093  -0.018  0.00  0.00    -0.037 A 
ATOM      5  C   LIG    1        2.730   1.754  -0.035  0.00  0.00    -0.009 A 
ATOM      6  C   LIG    1        1.879   1.197  -1.125  0.00  0.00    +0.152 C 
ATOM      7  C   LIG    1        0.453   1.075  -0.560  0.00  0.00    +0.108 C 
ATOM      8  S   LIG    1        0.380  -0.240   0.585  0.00  0.00    -0.148 S 
ATOM      9  C   LIG    1       -1.009  -1.322   0.578  0.00  0.00    +0.099 C 
ATOM     10  C   LIG    1       -0.541  -2.679   0.192  0.00  0.00    +0.018 A 
ATOM     11  C   LIG    1       -0.261  -3.668   1.088  0.00  0.00    +0.143 A 
ATOM     12  C   LIG    1        0.171  -4.939   0.679  0.00  0.00    +0.038 A 
ATOM     13  C   LIG    1        0.473  -6.009   1.675  0.00  0.00    +0.051 C 
ATOM     14  C   LIG    1        0.302  -5.152  -0.673  0.00  0.00    +0.173 A 
ATOM     15  O   LIG    1        0.701  -6.281  -1.370  0.00  0.00    -0.452 OA
ATOM     16  C   LIG    1        0.579  -6.058  -2.765  0.00  0.00    +0.466 C 
ATOM     17  O   LIG    1        0.250  -4.687  -2.825  0.00  0.00    -0.452 OA
ATOM     18  C   LIG    1        0.018  -4.150  -1.570  0.00  0.00    +0.172 A 
ATOM     19  C   LIG    1       -0.410  -2.890  -1.160  0.00  0.00    +0.026 A 
ATOM     20  C   LIG    1       -0.707  -1.812  -2.156  0.00  0.00    +0.131 C 
ATOM     21  N   LIG    1       -1.611  -0.812  -1.717  0.00  0.00    -0.260 NA
ATOM     22  C   LIG    1       -2.636  -0.562  -2.688  0.00  0.00    +0.204 C 
ATOM     23  C   LIG    1       -3.812   0.204  -2.162  0.00  0.00    +0.105 C 
ATOM     24  N   LIG    1       -4.266  -0.187  -0.875  0.00  0.00    -0.290 NA
ATOM     25  C   LIG    1       -3.141  -0.056   0.075  0.00  0.00    +0.109 C 
ATOM     26  C   LIG    1       -2.795   1.350   0.132  0.00  0.00    +0.020 A 
ATOM     27  C   LIG    1       -2.268   1.899   1.276  0.00  0.00    +0.164 A 
ATOM     28  C   LIG    1       -1.944   3.265   1.315  0.00  0.00    +0.164 A 
ATOM     29  C   LIG    1       -2.146   4.060   0.226  0.00  0.00    -0.005 A 
ATOM     30  C   LIG    1       -1.811   5.526   0.227  0.00  0.00    +0.047 C 
ATOM     31  C   LIG    1       -2.672   3.525  -0.924  0.00  0.00    +0.011 A 
ATOM     32  C   LIG    1       -2.993   2.166  -0.960  0.00  0.00    -0.037 A 
ATOM     33  C   LIG    1       -4.868  -1.481  -0.844  0.00  0.00    +0.106 C 
ATOM     34  C   LIG    1       -3.562   1.689  -2.236  0.00  0.00    +0.058 C 
ATOM     35  C   LIG    1        0.589  -1.238  -2.701  0.00  0.00    +0.256 C 
ATOM     36  O   LIG    1        1.597  -1.193  -1.735  0.00  0.00    -0.461 OA
ATOM     37  C   LIG    1       -2.106  -1.012  -0.401  0.00  0.00    +0.099 C 
ATOM     38  C   LIG    1        2.445  -0.133  -1.470  0.00  0.00    +0.333 C 
ATOM     39  O   LIG    1        3.712  -0.210  -1.499  0.00  0.00    -0.248 OA
ATOM     40  N   LIG    1        1.869   1.983  -2.316  0.00  0.00    -0.297 NA
ATOM     41  C   LIG    1        2.792   3.063  -2.386  0.00  0.00    +0.087 C 
ATOM     42  H   LIG    1        2.035   1.393  -3.185  0.00  0.00    +0.123 HD
ATOM     43  C   LIG    1        2.598   3.936  -1.137  0.00  0.00    +0.051 C 
ATOM     44  C   LIG    1        3.192   0.967   0.997  0.00  0.00    +0.055 A 
ENDROOT
BRANCH   1  45
ATOM     45  O   LIG    1        4.455   0.703   3.056  0.00  0.00    -0.491 OA
ATOM     46  C   LIG    1        4.230  -0.662   3.258  0.00  0.00    +0.277 C 
ENDBRANCH   1  45
BRANCH   2  47
ATOM     47  O   LIG    1        5.125   3.336   3.030  0.00  0.00    -0.503 OA
ATOM     48  H   LIG    1        5.399   4.291   3.068  0.00  0.00    +0.292 HD
ENDBRANCH   2  47
BRANCH  27  49
ATOM     49  O   LIG    1       -2.026   1.175   2.434  0.00  0.00    -0.503 OA
ATOM     50  H   LIG    1       -1.647   1.579   3.256  0.00  0.00    +0.292 HD
ENDBRANCH  27  49
BRANCH  28  51
ATOM     51  O   LIG    1       -1.411   3.826   2.468  0.00  0.00    -0.491 OA
ATOM     52  C   LIG    1        0.008   3.827   2.604  0.00  0.00    +0.277 C 
ENDBRANCH  28  51
BRANCH  22  53
ATOM     53  O   LIG    1       -3.064  -1.707  -3.354  0.00  0.00    -0.376 OA
ATOM     54  H   LIG    1       -3.144  -1.572  -4.326  0.00  0.00    +0.212 HD
ENDBRANCH  22  53
BRANCH  11  55
ATOM     55  O   LIG    1       -0.399  -3.438   2.458  0.00  0.00    -0.425 OA
BRANCH  55  56
ATOM     56  C   LIG    1        0.653  -2.966   3.211  0.00  0.00    +0.309 C 
ATOM     57  C   LIG    1        0.577  -2.698   4.670  0.00  0.00    +0.136 C 
ATOM     58  O   LIG    1        1.736  -2.756   2.607  0.00  0.00    -0.251 OA
ENDBRANCH  55  56
ENDBRANCH  11  55
TORSDOF 7
