REMARK  Name = molecules/PMCPYLGCPSNSLS-FOLVSLTJSA-N.pdb
REMARK                            x       y       z     vdW  Elec       q    Type
REMARK                         _______ _______ _______ _____ _____    ______ ____
ROOT
ATOM      1  C   LIG    1       -0.256   1.156   0.310  0.00  0.00    +0.188 C 
ATOM      2  C   LIG    1       -1.359   0.471   1.100  0.00  0.00    +0.058 C 
ATOM      3  C   LIG    1       -2.563   1.350   1.151  0.00  0.00    +0.092 C 
ATOM      4  N   LIG    1       -2.738   2.194   0.021  0.00  0.00    -0.304 NA
ATOM      5  C   LIG    1       -2.792   3.592   0.271  0.00  0.00    +0.104 C 
ATOM      6  C   LIG    1       -2.151   1.799  -1.197  0.00  0.00    +0.092 C 
ATOM      7  C   LIG    1       -1.588  -0.888   0.536  0.00  0.00    +0.092 C 
ATOM      8  N   LIG    1       -1.752  -0.969  -0.877  0.00  0.00    -0.302 NA
ATOM      9  C   LIG    1       -0.758  -0.215  -1.616  0.00  0.00    +0.092 C 
ATOM     10  C   LIG    1       -0.755   1.238  -1.113  0.00  0.00    +0.058 C 
ENDROOT
BRANCH   8  11
ATOM     11  C   LIG    1       -1.611  -2.357  -1.285  0.00  0.00    +0.081 C 
ATOM     12  C   LIG    1       -2.748  -3.221  -0.795  0.00  0.00    +0.020 C 
ENDBRANCH   8  11
BRANCH   1  13
ATOM     13  O   LIG    1        0.890   0.337   0.286  0.00  0.00    -0.457 OA
BRANCH  13  14
ATOM     14  C   LIG    1        2.104   0.788   0.782  0.00  0.00    +0.339 C 
ATOM     15  O   LIG    1        2.097   1.969   1.241  0.00  0.00    -0.245 OA
BRANCH  14  22
ATOM     16  C   LIG    1        4.475   0.481   1.297  0.00  0.00    +0.016 A 
ATOM     17  C   LIG    1        5.634  -0.277   1.317  0.00  0.00    +0.021 A 
ATOM     18  C   LIG    1        5.628  -1.564   0.816  0.00  0.00    +0.041 A 
ATOM     19 CL   LIG    1        7.083  -2.552   0.832  0.00  0.00    -0.084 Cl
ATOM     20  C   LIG    1        4.472  -2.087   0.299  0.00  0.00    +0.021 A 
ATOM     21  C   LIG    1        3.330  -1.307   0.291  0.00  0.00    +0.016 A 
ATOM     22  C   LIG    1        3.306  -0.029   0.782  0.00  0.00    +0.059 A 
ENDBRANCH  14  22
ENDBRANCH  13  14
ENDBRANCH   1  13
TORSDOF 4
