REMARK  Name = molecules/PMFZALLSVLZXMR-SFHVURJKSA-N.pdb
REMARK                            x       y       z     vdW  Elec       q    Type
REMARK                         _______ _______ _______ _____ _____    ______ ____
ROOT
ATOM      1  C   LIG    1       -1.107   0.636  -0.588  0.00  0.00    +0.190 C 
ENDROOT
BRANCH   1   2
ATOM      2  C   LIG    1       -2.100  -0.455  -0.280  0.00  0.00    +0.036 C 
ATOM      3  C   LIG    1       -2.690  -0.385   1.082  0.00  0.00    +0.007 C 
ATOM      4  C   LIG    1       -3.815  -1.433   1.090  0.00  0.00    +0.000 C 
ATOM      5  C   LIG    1       -3.286  -2.809   0.907  0.00  0.00    +0.000 C 
ATOM      6  C   LIG    1       -1.899  -2.885   0.354  0.00  0.00    +0.000 C 
ATOM      7  C   LIG    1       -1.490  -1.780  -0.533  0.00  0.00    +0.007 C 
ENDBRANCH   1   2
BRANCH   1   8
ATOM      8  C   LIG    1       -1.707   1.993  -0.554  0.00  0.00    -0.005 A 
ATOM      9  C   LIG    1       -1.876   2.719   0.609  0.00  0.00    +0.007 A 
ATOM     10  C   LIG    1       -2.448   3.996   0.579  0.00  0.00    +0.000 A 
ATOM     11  C   LIG    1       -2.855   4.556  -0.612  0.00  0.00    +0.000 A 
ATOM     12  C   LIG    1       -2.693   3.850  -1.766  0.00  0.00    +0.000 A 
ATOM     13  C   LIG    1       -2.134   2.607  -1.722  0.00  0.00    +0.007 A 
ENDBRANCH   1   8
BRANCH   1  14
ATOM     14  C   LIG    1        0.117   0.531   0.248  0.00  0.00    +0.344 C 
ATOM     15  O   LIG    1        0.098   0.680   1.508  0.00  0.00    -0.247 OA
BRANCH  14  16
ATOM     16  O   LIG    1        1.383   0.260  -0.288  0.00  0.00    -0.462 OA
BRANCH  16  17
ATOM     17  C   LIG    1        2.542   0.162   0.521  0.00  0.00    +0.242 C 
BRANCH  17  18
ATOM     18  C   LIG    1        3.699  -0.139  -0.427  0.00  0.00    +0.099 C 
BRANCH  18  19
ATOM     19  S   LIG    1        5.229  -0.289   0.459  0.00  0.00    -0.211 S 
ATOM     20  C   LIG    1        5.128  -1.692   1.544  0.00  0.00    +0.073 C 
ATOM     21  C   LIG    1        6.500  -0.638  -0.737  0.00  0.00    +0.073 C 
ENDBRANCH  18  19
ENDBRANCH  17  18
ENDBRANCH  16  17
ENDBRANCH  14  16
ENDBRANCH   1  14
BRANCH   1  22
ATOM     22  O   LIG    1       -0.688   0.409  -1.921  0.00  0.00    -0.373 OA
ATOM     23  H   LIG    1       -0.060  -0.339  -1.963  0.00  0.00    +0.211 HD
ENDBRANCH   1  22
TORSDOF 8
