REMARK  Name = molecules/PNCPYILNMDWPEY-QGZVFWFLSA-N.pdb
REMARK                            x       y       z     vdW  Elec       q    Type
REMARK                         _______ _______ _______ _____ _____    ______ ____
ROOT
ATOM      1  C   LIG    1       -0.301  -0.531   1.739  0.00  0.00    +0.053 C 
ENDROOT
BRANCH   1   2
ATOM      2  C   LIG    1        1.087  -0.399   1.209  0.00  0.00    -0.045 A 
ATOM      3  C   LIG    1        2.170  -0.946   1.855  0.00  0.00    +0.009 A 
ATOM      4  C   LIG    1        3.421  -0.822   1.313  0.00  0.00    -0.024 A 
ATOM      5  C   LIG    1        4.711  -1.326   1.837  0.00  0.00    +0.056 C 
ATOM      6  C   LIG    1        5.715  -0.483   1.083  0.00  0.00    +0.110 C 
ATOM      7  N   LIG    1        5.013  -0.145  -0.187  0.00  0.00    -0.329 N 
ATOM      8  C   LIG    1        3.656  -0.155   0.115  0.00  0.00    +0.045 A 
ATOM      9  C   LIG    1        2.565   0.382  -0.515  0.00  0.00    +0.058 A 
ATOM     10  C   LIG    1        1.282   0.258   0.038  0.00  0.00    +0.018 A 
BRANCH   9  11
ATOM     11  C   LIG    1        2.627   1.027  -1.790  0.00  0.00    +0.243 C 
ATOM     12  N   LIG    1        1.588   1.985  -2.111  0.00  0.00    -0.325 N 
ATOM     13  H   LIG    1        1.773   2.982  -2.039  0.00  0.00    +0.145 HD
ATOM     14  H   LIG    1        0.700   1.547  -2.403  0.00  0.00    +0.145 HD
ATOM     15  O   LIG    1        3.454   0.878  -2.657  0.00  0.00    -0.270 OA
ENDBRANCH   9  11
BRANCH   7  16
ATOM     16  C   LIG    1        5.744   0.100  -1.364  0.00  0.00    +0.107 C 
BRANCH  16  17
ATOM     17  C   LIG    1        6.571   1.358  -1.278  0.00  0.00    +0.047 C 
BRANCH  17  18
ATOM     18  C   LIG    1        5.752   2.578  -1.015  0.00  0.00    +0.157 C 
BRANCH  18  19
ATOM     19  O   LIG    1        6.592   3.716  -0.918  0.00  0.00    -0.395 OA
ATOM     20  H   LIG    1        6.053   4.366  -0.376  0.00  0.00    +0.209 HD
ENDBRANCH  18  19
ENDBRANCH  17  18
ENDBRANCH  16  17
ENDBRANCH   7  16
ENDBRANCH   1   2
BRANCH   1  22
ATOM     21  C   LIG    1       -0.093  -3.004   1.407  0.00  0.00    +0.024 C 
ATOM     22  C   LIG    1       -0.902  -1.784   1.072  0.00  0.00    +0.055 C 
BRANCH  22  23
ATOM     23  N   LIG    1       -2.263  -1.859   1.446  0.00  0.00    -0.310 NA
ATOM     24  H   LIG    1       -2.755  -0.968   1.550  0.00  0.00    +0.122 HD
BRANCH  23  25
ATOM     25  C   LIG    1       -3.052  -2.888   0.807  0.00  0.00    +0.122 C 
BRANCH  25  26
ATOM     26  C   LIG    1       -3.218  -2.524  -0.645  0.00  0.00    +0.244 C 
BRANCH  26  27
ATOM     27  O   LIG    1       -3.853  -1.308  -0.804  0.00  0.00    -0.487 OA
BRANCH  27  28
ATOM     28  C   LIG    1       -5.120  -0.892  -0.508  0.00  0.00    +0.162 A 
ATOM     29  C   LIG    1       -6.128  -1.660  -0.002  0.00  0.00    +0.049 A 
ATOM     30  C   LIG    1       -7.401  -1.167   0.285  0.00  0.00    +0.004 A 
ATOM     31  C   LIG    1       -7.692   0.151   0.057  0.00  0.00    +0.004 A 
ATOM     32  C   LIG    1       -6.691   0.949  -0.457  0.00  0.00    +0.049 A 
ATOM     33  C   LIG    1       -5.426   0.492  -0.747  0.00  0.00    +0.162 A 
BRANCH  33  34
ATOM     34  O   LIG    1       -4.403   1.217  -1.241  0.00  0.00    -0.479 OA
BRANCH  34  35
ATOM     35  C   LIG    1       -4.159   2.506  -1.574  0.00  0.00    +0.342 C 
BRANCH  35  36
ATOM     36  C   LIG    1       -4.148   3.546  -0.501  0.00  0.00    +0.424 C 
ATOM     37  F   LIG    1       -3.107   3.271   0.388  0.00  0.00    -0.167 F 
ATOM     38  F   LIG    1       -5.297   3.695   0.192  0.00  0.00    -0.167 F 
ATOM     39  F   LIG    1       -3.874   4.762  -1.122  0.00  0.00    -0.167 F 
ENDBRANCH  35  36
ENDBRANCH  34  35
ENDBRANCH  33  34
ENDBRANCH  27  28
ENDBRANCH  26  27
ENDBRANCH  25  26
ENDBRANCH  23  25
ENDBRANCH  22  23
ENDBRANCH   1  22
TORSDOF 15
