REMARK  Name = molecules/PNVNVHUZROJLTJ-INIZCTEOSA-N.pdb
REMARK                            x       y       z     vdW  Elec       q    Type
REMARK                         _______ _______ _______ _____ _____    ______ ____
ROOT
ATOM      1  C   LIG    1       -0.235  -0.745   0.390  0.00  0.00    +0.065 C 
ENDROOT
BRANCH   1   3
ATOM      2  C   LIG    1        1.133  -0.118  -1.602  0.00  0.00    +0.007 A 
ATOM      3  C   LIG    1        1.046  -0.360  -0.256  0.00  0.00    -0.040 A 
ATOM      4  C   LIG    1        2.198  -0.234   0.507  0.00  0.00    +0.007 A 
ATOM      5  C   LIG    1        3.420   0.124  -0.021  0.00  0.00    +0.046 A 
ATOM      6  C   LIG    1        3.468   0.361  -1.379  0.00  0.00    +0.120 A 
ATOM      7  C   LIG    1        2.341   0.241  -2.153  0.00  0.00    +0.046 A 
BRANCH   6   8
ATOM      8  O   LIG    1        4.663   0.726  -1.981  0.00  0.00    -0.495 OA
ATOM      9  C   LIG    1        5.813   0.849  -1.198  0.00  0.00    +0.277 C 
ENDBRANCH   6   8
ENDBRANCH   1   3
BRANCH   1  10
ATOM     10  C   LIG    1       -1.172   0.433   0.543  0.00  0.00    +0.074 C 
ATOM     11  C   LIG    1       -0.579   1.524   1.388  0.00  0.00    +0.035 C 
ATOM     12  C   LIG    1       -0.789   2.910   0.962  0.00  0.00    +0.003 C 
ATOM     13  C   LIG    1       -1.998   3.218   0.159  0.00  0.00    +0.000 C 
ATOM     14  C   LIG    1       -2.738   2.011  -0.356  0.00  0.00    +0.003 C 
ATOM     15  C   LIG    1       -1.659   0.994  -0.772  0.00  0.00    +0.035 C 
BRANCH  10  16
ATOM     16  O   LIG    1       -2.300  -0.035   1.218  0.00  0.00    -0.388 OA
ATOM     17  H   LIG    1       -2.997  -0.325   0.609  0.00  0.00    +0.210 HD
ENDBRANCH  10  16
ENDBRANCH   1  10
BRANCH   1  18
ATOM     18  C   LIG    1       -0.810  -1.899  -0.376  0.00  0.00    +0.094 C 
BRANCH  18  19
ATOM     19  N   LIG    1       -2.062  -2.401   0.131  0.00  0.00    -0.308 NA
ATOM     20  C   LIG    1       -1.967  -3.001   1.437  0.00  0.00    +0.104 C 
ATOM     21  C   LIG    1       -2.441  -3.497  -0.777  0.00  0.00    +0.104 C 
ENDBRANCH  18  19
ENDBRANCH   1  18
TORSDOF 6
