REMARK  Name = molecules/PNXBXCRWXNESOV-UHFFFAOYSA-N.pdb
REMARK                            x       y       z     vdW  Elec       q    Type
REMARK                         _______ _______ _______ _____ _____    ______ ____
ROOT
ATOM      1  C   LIG    1       -1.186  -0.089  -0.700  0.00  0.00    +0.027 A 
ATOM      2  N   LIG    1       -1.876   0.980  -0.258  0.00  0.00    -0.338 N 
ATOM      3  C   LIG    1       -3.002   0.867   0.483  0.00  0.00    +0.158 A 
ATOM      4  S   LIG    1       -3.760   2.234   0.967  0.00  0.00    -0.013 S 
ATOM      5  N   LIG    1       -3.475  -0.354   0.807  0.00  0.00    -0.303 N 
ATOM      6  H   LIG    1       -4.342  -0.458   1.378  0.00  0.00    +0.171 HD
ATOM      7  C   LIG    1       -2.805  -1.445   0.378  0.00  0.00    +0.252 A 
ATOM      8  O   LIG    1       -3.242  -2.592   0.677  0.00  0.00    -0.268 OA
ATOM      9  H   LIG    1       -1.539   1.924  -0.489  0.00  0.00    +0.167 HD
ATOM     10  C   LIG    1       -1.652  -1.353  -0.381  0.00  0.00    +0.091 A 
ENDROOT
BRANCH   1  11
ATOM     11  C   LIG    1        0.053   0.037  -1.516  0.00  0.00    +0.088 C 
BRANCH  11  12
ATOM     12  C   LIG    1        1.244   0.093  -0.632  0.00  0.00    -0.042 A 
ATOM     13  C   LIG    1        1.689   1.317  -0.188  0.00  0.00    +0.004 A 
ATOM     14  C   LIG    1        2.788   1.447   0.634  0.00  0.00    +0.000 A 
ATOM     15  C   LIG    1        3.445   0.287   1.008  0.00  0.00    +0.000 A 
ATOM     16  C   LIG    1        3.040  -0.955   0.591  0.00  0.00    +0.000 A 
ATOM     17  C   LIG    1        1.942  -1.027  -0.225  0.00  0.00    +0.004 A 
ENDBRANCH  11  12
ENDBRANCH   1  11
TORSDOF 2
