REMARK  Name = molecules/PNYKGCPSFKLFKA-KRWDZBQOSA-N.pdb
REMARK                            x       y       z     vdW  Elec       q    Type
REMARK                         _______ _______ _______ _____ _____    ______ ____
ROOT
ATOM      1  C   LIG    1       -0.146   0.188   0.041  0.00  0.00    +0.179 C 
ENDROOT
BRANCH   1   3
ATOM      2  C   LIG    1       -1.708  -1.173  -1.375  0.00  0.00    +0.007 A 
ATOM      3  C   LIG    1       -1.207  -0.839  -0.110  0.00  0.00    -0.012 A 
ATOM      4  C   LIG    1       -1.756  -1.496   0.955  0.00  0.00    -0.044 A 
ATOM      5  C   LIG    1       -1.269  -1.206   2.328  0.00  0.00    +0.044 C 
ATOM      6  C   LIG    1       -2.751  -2.442   0.833  0.00  0.00    +0.004 A 
ATOM      7  C   LIG    1       -3.236  -2.763  -0.410  0.00  0.00    +0.000 A 
ATOM      8  C   LIG    1       -2.706  -2.120  -1.509  0.00  0.00    +0.000 A 
ENDBRANCH   1   3
BRANCH   1   9
ATOM      9  C   LIG    1       -0.704   1.574   0.144  0.00  0.00    -0.014 A 
ATOM     10  C   LIG    1       -0.757   2.295   1.300  0.00  0.00    +0.006 A 
ATOM     11  C   LIG    1       -1.262   3.588   1.393  0.00  0.00    +0.000 A 
ATOM     12  C   LIG    1       -1.743   4.195   0.248  0.00  0.00    +0.000 A 
ATOM     13  C   LIG    1       -1.704   3.492  -0.950  0.00  0.00    +0.000 A 
ATOM     14  C   LIG    1       -1.200   2.224  -0.992  0.00  0.00    +0.006 A 
ENDBRANCH   1   9
BRANCH   1  15
ATOM     15  O   LIG    1        0.789   0.116  -0.990  0.00  0.00    -0.366 OA
BRANCH  15  16
ATOM     16  C   LIG    1        2.031  -0.143  -0.430  0.00  0.00    +0.176 C 
BRANCH  16  17
ATOM     17  C   LIG    1        3.123  -0.215  -1.455  0.00  0.00    +0.108 C 
BRANCH  17  18
ATOM     18  N   LIG    1        4.411  -0.480  -0.893  0.00  0.00    -0.317 NA
ATOM     19  H   LIG    1        4.557   0.225  -0.120  0.00  0.00    +0.122 HD
ATOM     20  C   LIG    1        4.583  -1.788  -0.347  0.00  0.00    +0.101 C 
ENDBRANCH  17  18
ENDBRANCH  16  17
ENDBRANCH  15  16
ENDBRANCH   1  15
TORSDOF 6
