REMARK  Name = molecules/POGQSBRIGCQNEG-UHFFFAOYSA-N.pdb
REMARK                            x       y       z     vdW  Elec       q    Type
REMARK                         _______ _______ _______ _____ _____    ______ ____
ROOT
ATOM      1  N   LIG    1        0.783   0.531  -0.817  0.00  0.00    -0.246 N 
ATOM      2  N   LIG    1        1.283   1.586  -0.213  0.00  0.00    -0.065 NA
ATOM      3  N   LIG    1        2.397   1.304   0.413  0.00  0.00    -0.125 NA
ATOM      4  C   LIG    1        2.638   0.010   0.211  0.00  0.00    +0.167 A 
ATOM      5  C   LIG    1        1.629  -0.480  -0.560  0.00  0.00    +0.143 A 
ENDROOT
BRANCH   4   6
ATOM      6  C   LIG    1        3.804  -0.700   0.754  0.00  0.00    +0.263 C 
ATOM      7  N   LIG    1        4.771  -0.057   1.539  0.00  0.00    -0.324 N 
ATOM      8  H   LIG    1        4.512   0.499   2.373  0.00  0.00    +0.145 HD
ATOM      9  H   LIG    1        5.772  -0.133   1.286  0.00  0.00    +0.145 HD
ATOM     10  O   LIG    1        3.888  -1.931   0.471  0.00  0.00    -0.269 OA
ENDBRANCH   4   6
BRANCH   1  11
ATOM     11  C   LIG    1       -0.442   0.533  -1.590  0.00  0.00    +0.186 C 
BRANCH  11  17
ATOM     12  C   LIG    1       -3.282  -1.272  -0.032  0.00  0.00    +0.039 A 
ATOM     13  C   LIG    1       -3.822  -0.341   0.818  0.00  0.00    +0.006 A 
ATOM     14  C   LIG    1       -3.239   0.908   0.879  0.00  0.00    +0.039 A 
ATOM     15  C   LIG    1       -2.125   1.189   0.083  0.00  0.00    +0.131 A 
ATOM     16  F   LIG    1       -1.548   2.422   0.142  0.00  0.00    -0.205 F 
ATOM     17  C   LIG    1       -1.619   0.224  -0.754  0.00  0.00    +0.044 A 
ATOM     18  C   LIG    1       -2.173  -1.031  -0.842  0.00  0.00    +0.131 A 
ATOM     19  F   LIG    1       -1.692  -1.998  -1.658  0.00  0.00    -0.205 F 
ENDBRANCH  11  17
ENDBRANCH   1  11
TORSDOF 3
