REMARK  Name = molecules/POULHZVOKOAJMA-UHFFFAOYSA-N.pdb
REMARK                            x       y       z     vdW  Elec       q    Type
REMARK                         _______ _______ _______ _____ _____    ______ ____
ROOT
ATOM      1  C   LIG    1        1.144  -0.341   1.081  0.00  0.00    +0.000 C 
ENDROOT
BRANCH   1   2
ATOM      2  C   LIG    1        1.722  -1.198  -0.017  0.00  0.00    +0.001 C 
BRANCH   2   3
ATOM      3  C   LIG    1        2.994  -0.676  -0.572  0.00  0.00    +0.011 C 
BRANCH   3   4
ATOM      4  C   LIG    1        4.083  -0.565   0.429  0.00  0.00    +0.120 C 
BRANCH   4   5
ATOM      5  C   LIG    1        5.355  -0.062  -0.173  0.00  0.00    +0.305 C 
ATOM      6  O   LIG    1        6.072  -0.868  -0.795  0.00  0.00    -0.251 OA
BRANCH   5   7
ATOM      7  O   LIG    1        5.767   1.261  -0.066  0.00  0.00    -0.481 OA
ATOM      8  H   LIG    1        5.200   1.879   0.503  0.00  0.00    +0.295 HD
ENDBRANCH   5   7
ENDBRANCH   4   5
ENDBRANCH   3   4
ENDBRANCH   2   3
ENDBRANCH   1   2
BRANCH   1   9
ATOM      9  C   LIG    1        0.868   1.046   0.651  0.00  0.00    +0.000 C 
BRANCH   9  10
ATOM     10  C   LIG    1       -0.034   1.330  -0.461  0.00  0.00    +0.000 C 
BRANCH  10  11
ATOM     11  C   LIG    1       -1.458   0.967  -0.441  0.00  0.00    -0.000 C 
BRANCH  11  12
ATOM     12  C   LIG    1       -1.843  -0.460  -0.339  0.00  0.00    -0.000 C 
BRANCH  12  13
ATOM     13  C   LIG    1       -3.358  -0.695  -0.394  0.00  0.00    -0.000 C 
BRANCH  13  14
ATOM     14  C   LIG    1       -4.011   0.010   0.749  0.00  0.00    -0.003 C 
ATOM     15  C   LIG    1       -5.520  -0.217   0.754  0.00  0.00    +0.004 C 
ENDBRANCH  13  14
ENDBRANCH  12  13
ENDBRANCH  11  12
ENDBRANCH  10  11
ENDBRANCH   9  10
ENDBRANCH   1   9
TORSDOF 11
