REMARK  Name = molecules/POZRVZJJTULAOH-LHZXLZLDSA-N.pdb
REMARK                            x       y       z     vdW  Elec       q    Type
REMARK                         _______ _______ _______ _____ _____    ______ ____
ROOT
ATOM      1  C   LIG    1        1.959   0.513  -1.585  0.00  0.00    +0.016 C 
ATOM      2  C   LIG    1        2.024   0.155  -0.074  0.00  0.00    -0.003 C 
ATOM      3  C   LIG    1        2.734   1.219   0.623  0.00  0.00    +0.051 C 
ATOM      4  C   LIG    1        3.907   0.798   1.406  0.00  0.00    +0.019 A 
ATOM      5  C   LIG    1        4.791   1.547   2.207  0.00  0.00    +0.160 A 
ATOM      6  N   LIG    1        5.680   0.655   2.660  0.00  0.00    -0.086 NA
ATOM      7  O   LIG    1        5.402  -0.527   2.207  0.00  0.00    -0.355 OA
ATOM      8  C   LIG    1        4.324  -0.492   1.434  0.00  0.00    +0.163 A 
ATOM      9  C   LIG    1        3.606  -1.520   0.697  0.00  0.00    +0.049 C 
ATOM     10  C   LIG    1        0.570   0.036   0.405  0.00  0.00    +0.003 C 
ATOM     11  C   LIG    1       -0.017   1.346   0.741  0.00  0.00    +0.005 C 
ATOM     12  C   LIG    1       -1.503   1.436   0.764  0.00  0.00    +0.011 C 
ATOM     13  C   LIG    1       -2.130   0.657  -0.329  0.00  0.00    +0.011 C 
ATOM     14  C   LIG    1       -3.618   0.442  -0.143  0.00  0.00    +0.132 C 
ATOM     15  C   LIG    1       -3.911  -0.976  -0.589  0.00  0.00    +0.049 C 
ATOM     16  C   LIG    1       -2.570  -1.552  -1.002  0.00  0.00    +0.008 C 
ATOM     17  C   LIG    1       -1.635  -0.769  -0.160  0.00  0.00    +0.002 C 
ATOM     18  C   LIG    1       -1.910   1.235  -1.679  0.00  0.00    +0.015 C 
ATOM     19  C   LIG    1       -0.206  -0.778  -0.609  0.00  0.00    -0.003 C 
ATOM     20  C   LIG    1        0.356  -2.150  -0.749  0.00  0.00    +0.008 C 
ATOM     21  C   LIG    1        1.824  -2.283  -0.768  0.00  0.00    +0.032 C 
ATOM     22  C   LIG    1        2.550  -1.223   0.003  0.00  0.00    -0.059 C 
ENDROOT
BRANCH  14  23
ATOM     23  C   LIG    1       -4.001   0.655   1.252  0.00  0.00    -0.070 C 
ATOM     24  C   LIG    1       -4.332   0.823   2.397  0.00  0.00    +0.007 C 
ENDBRANCH  14  23
BRANCH  14  25
ATOM     25  O   LIG    1       -4.364   1.297  -0.950  0.00  0.00    -0.376 OA
ATOM     26  H   LIG    1       -5.222   0.866  -1.230  0.00  0.00    +0.211 HD
ENDBRANCH  14  25
TORSDOF 2
