REMARK  Name = molecules/PPRRDFIXUUSXRA-UHFFFAOYSA-N.pdb
REMARK                            x       y       z     vdW  Elec       q    Type
REMARK                         _______ _______ _______ _____ _____    ______ ____
ROOT
ATOM      1  N   LIG    1       -2.501  -0.092   0.485  0.00  0.00    -0.327 N 
ATOM      2  C   LIG    1       -1.769   0.500   1.543  0.00  0.00    +0.120 C 
ATOM      3  C   LIG    1       -0.260   0.425   1.403  0.00  0.00    +0.103 C 
ATOM      4  N   LIG    1        0.179   0.095   0.117  0.00  0.00    -0.298 NA
ATOM      5  C   LIG    1       -0.466  -1.040  -0.499  0.00  0.00    +0.103 C 
ATOM      6  C   LIG    1       -1.926  -1.177  -0.283  0.00  0.00    +0.120 C 
ENDROOT
BRANCH   1   8
ATOM      7  C   LIG    1       -4.892  -0.458   0.506  0.00  0.00    +0.035 A 
ATOM      8  C   LIG    1       -3.820   0.342   0.162  0.00  0.00    +0.030 A 
ATOM      9  C   LIG    1       -3.991   1.494  -0.559  0.00  0.00    +0.023 A 
ATOM     10  C   LIG    1       -5.283   1.853  -0.953  0.00  0.00    +0.002 A 
ATOM     11  C   LIG    1       -6.325   1.050  -0.606  0.00  0.00    +0.012 A 
ATOM     12  C   LIG    1       -6.167  -0.114   0.123  0.00  0.00    +0.057 A 
BRANCH  12  13
ATOM     13  C   LIG    1       -7.350  -0.959   0.465  0.00  0.00    +0.417 C 
ATOM     14  F   LIG    1       -6.988  -1.989   1.284  0.00  0.00    -0.166 F 
ATOM     15  F   LIG    1       -8.311  -0.186   1.087  0.00  0.00    -0.166 F 
ATOM     16  F   LIG    1       -7.851  -1.496  -0.709  0.00  0.00    -0.166 F 
ENDBRANCH  12  13
ENDBRANCH   1   8
BRANCH   4  17
ATOM     17  C   LIG    1        1.493   0.301  -0.312  0.00  0.00    +0.106 C 
BRANCH  17  18
ATOM     18  C   LIG    1        2.394  -0.800   0.205  0.00  0.00    +0.142 C 
BRANCH  18  19
ATOM     19  N   LIG    1        3.742  -0.676  -0.346  0.00  0.00    -0.291 N 
ATOM     20  C   LIG    1        4.782   0.022   0.087  0.00  0.00    +0.070 A 
ATOM     21  C   LIG    1        4.975   0.867   1.182  0.00  0.00    +0.028 A 
ATOM     22  C   LIG    1        6.209   1.461   1.342  0.00  0.00    +0.002 A 
ATOM     23  C   LIG    1        7.218   1.218   0.441  0.00  0.00    +0.002 A 
ATOM     24  C   LIG    1        7.046   0.388  -0.643  0.00  0.00    +0.028 A 
ATOM     25  C   LIG    1        5.816  -0.202  -0.802  0.00  0.00    +0.067 A 
ATOM     26  N   LIG    1        5.382  -1.046  -1.772  0.00  0.00    -0.306 N 
ATOM     27  H   LIG    1        5.931  -1.420  -2.602  0.00  0.00    +0.170 HD
ATOM     28  C   LIG    1        4.113  -1.334  -1.492  0.00  0.00    +0.328 A 
ATOM     29  O   LIG    1        3.356  -2.070  -2.133  0.00  0.00    -0.247 OA
ENDBRANCH  18  19
ENDBRANCH  17  18
ENDBRANCH   4  17
TORSDOF 5
