REMARK  Name = molecules/PRFPQYGTPKDLHJ-LLVKDONJSA-N.pdb
REMARK                            x       y       z     vdW  Elec       q    Type
REMARK                         _______ _______ _______ _____ _____    ______ ____
ROOT
ATOM      1  O   LIG    1       -1.607  -0.377  -2.240  0.00  0.00    -0.297 OA
ATOM      2  C   LIG    1       -1.793  -0.054  -1.094  0.00  0.00    +0.138 C 
ATOM      3  C   LIG    1       -1.096  -0.799   0.015  0.00  0.00    +0.069 C 
ATOM      4  C   LIG    1       -2.085  -0.941   1.161  0.00  0.00    +0.012 C 
ATOM      5  C   LIG    1       -3.472  -0.961   0.529  0.00  0.00    +0.001 C 
ATOM      6  C   LIG    1       -3.811   0.476   0.178  0.00  0.00    +0.008 C 
ATOM      7  C   LIG    1       -2.673   1.056  -0.650  0.00  0.00    +0.074 C 
ENDROOT
BRANCH   3   8
ATOM      8  C   LIG    1        0.097  -0.004   0.493  0.00  0.00    +0.095 C 
BRANCH   8   9
ATOM      9  N   LIG    1        1.040   0.189  -0.537  0.00  0.00    -0.302 NA
ATOM     10  C   LIG    1        1.734   1.419  -0.562  0.00  0.00    +0.084 C 
ATOM     11  C   LIG    1        2.825   1.361   0.483  0.00  0.00    +0.015 C 
ATOM     12  C   LIG    1        3.754   0.238   0.156  0.00  0.00    +0.002 C 
ATOM     13  C   LIG    1        3.157  -1.030  -0.304  0.00  0.00    +0.015 C 
ATOM     14  C   LIG    1        1.770  -0.992  -0.865  0.00  0.00    +0.084 C 
ENDBRANCH   8   9
ENDBRANCH   3   8
TORSDOF 2
