REMARK  Name = molecules/PRNNIHPVNFPWAH-UHFFFAOYSA-N.pdb
REMARK                            x       y       z     vdW  Elec       q    Type
REMARK                         _______ _______ _______ _____ _____    ______ ____
ROOT
ATOM      1  C   LIG    1       -0.663  -0.336  -0.059  0.00  0.00    +0.088 A 
ATOM      2  C   LIG    1       -1.403  -0.070   1.076  0.00  0.00    +0.030 A 
ATOM      3  C   LIG    1       -2.702   0.396   0.996  0.00  0.00    +0.040 A 
ATOM      4  C   LIG    1       -3.312   0.615  -0.225  0.00  0.00    +0.124 A 
ATOM      5  F   LIG    1       -4.588   1.073  -0.312  0.00  0.00    -0.205 F 
ATOM      6  C   LIG    1       -2.583   0.354  -1.366  0.00  0.00    +0.040 A 
ATOM      7  C   LIG    1       -1.282  -0.113  -1.278  0.00  0.00    +0.030 A 
ENDROOT
BRANCH   1   8
ATOM      8  S   LIG    1        0.971  -0.922   0.074  0.00  0.00    -0.003 S 
ATOM      9  O   LIG    1        1.117  -1.665   1.378  0.00  0.00    -0.169 OA
ATOM     10  O   LIG    1        1.262  -1.848  -1.056  0.00  0.00    -0.169 OA
BRANCH   8  11
ATOM     11  C   LIG    1        2.111   0.437   0.121  0.00  0.00    +0.168 C 
ATOM     12  C   LIG    1        3.528  -0.083   0.237  0.00  0.00    +0.028 C 
ENDBRANCH   8  11
ENDBRANCH   1   8
TORSDOF 2
