REMARK  Name = molecules/PSBAIJVSCTZDDB-UHFFFAOYSA-N.pdb
REMARK                            x       y       z     vdW  Elec       q    Type
REMARK                         _______ _______ _______ _____ _____    ______ ____
ROOT
ATOM      1  C   LIG    1       -2.362   0.887  -0.534  0.00  0.00    +0.146 A 
ATOM      2  C   LIG    1       -1.111   1.298  -0.084  0.00  0.00    +0.102 A 
ATOM      3  C   LIG    1       -0.953   2.530   0.503  0.00  0.00    +0.019 A 
ATOM      4  C   LIG    1       -2.002   3.392   0.667  0.00  0.00    +0.001 A 
ATOM      5  C   LIG    1       -3.243   2.969   0.214  0.00  0.00    +0.004 A 
ATOM      6  C   LIG    1       -3.437   1.736  -0.381  0.00  0.00    +0.047 A 
ENDROOT
BRANCH   2   7
ATOM      7  C   LIG    1        0.037   0.411  -0.238  0.00  0.00    +0.348 C 
ATOM      8  O   LIG    1       -0.080  -0.718  -0.770  0.00  0.00    -0.244 OA
BRANCH   7   9
ATOM      9  O   LIG    1        1.282   0.793   0.197  0.00  0.00    -0.422 OA
BRANCH   9  10
ATOM     10  C   LIG    1        2.419   0.005   0.085  0.00  0.00    +0.132 A 
ATOM     11  C   LIG    1        2.829  -0.891   1.050  0.00  0.00    +0.046 A 
ATOM     12  C   LIG    1        3.962  -1.659   0.912  0.00  0.00    +0.004 A 
ATOM     13  C   LIG    1        4.721  -1.538  -0.227  0.00  0.00    +0.000 A 
ATOM     14  C   LIG    1        4.351  -0.649  -1.230  0.00  0.00    +0.004 A 
ATOM     15  C   LIG    1        3.197   0.110  -1.049  0.00  0.00    +0.046 A 
ENDBRANCH   9  10
ENDBRANCH   7   9
ENDBRANCH   2   7
BRANCH   1  16
ATOM     16  O   LIG    1       -2.454  -0.359  -1.113  0.00  0.00    -0.425 OA
BRANCH  16  17
ATOM     17  C   LIG    1       -2.723  -1.526  -0.422  0.00  0.00    +0.309 C 
ATOM     18  O   LIG    1       -2.895  -1.443   0.818  0.00  0.00    -0.251 OA
ATOM     19  C   LIG    1       -2.803  -2.825  -1.133  0.00  0.00    +0.136 C 
ENDBRANCH  16  17
ENDBRANCH   1  16
TORSDOF 5
