REMARK  Name = molecules/PSCNNGGPKIBAHB-WFVOKNHCSA-N.pdb
REMARK                            x       y       z     vdW  Elec       q    Type
REMARK                         _______ _______ _______ _____ _____    ______ ____
ROOT
ATOM      1  C   LIG    1       -2.615   0.855   2.080  0.00  0.00    +0.015 C 
ATOM      2  C   LIG    1       -2.586  -0.455   1.369  0.00  0.00    +0.009 C 
ATOM      3  C   LIG    1       -1.922  -1.523   2.168  0.00  0.00    +0.133 C 
ATOM      4  C   LIG    1       -2.905  -1.592   3.383  0.00  0.00    +0.043 C 
ATOM      5  C   LIG    1       -4.257  -1.376   2.758  0.00  0.00    +0.008 C 
ATOM      6  C   LIG    1       -3.993  -1.080   1.330  0.00  0.00    +0.002 C 
ATOM      7  C   LIG    1       -4.879   0.002   0.759  0.00  0.00    -0.000 C 
ATOM      8  C   LIG    1       -6.333  -0.342   0.963  0.00  0.00    +0.012 C 
ATOM      9  C   LIG    1       -7.168   0.747   0.319  0.00  0.00    +0.013 C 
ATOM     10  C   LIG    1       -8.632   0.556   0.482  0.00  0.00    +0.012 C 
ATOM     11  C   LIG    1       -6.781   0.816  -1.146  0.00  0.00    -0.053 C 
ATOM     12  C   LIG    1       -5.376   1.097  -1.457  0.00  0.00    +0.013 C 
ATOM     13  C   LIG    1       -5.017   2.512  -1.011  0.00  0.00    +0.020 C 
ATOM     14  C   LIG    1       -5.095   1.035  -2.884  0.00  0.00    -0.012 C 
ATOM     15  C   LIG    1       -5.975   0.776  -3.830  0.00  0.00    +0.047 C 
ATOM     16  C   LIG    1       -7.350   0.519  -3.455  0.00  0.00    +0.179 C 
ATOM     17  O   LIG    1       -8.232   0.272  -4.298  0.00  0.00    -0.288 OA
ATOM     18  C   LIG    1       -7.688   0.558  -2.026  0.00  0.00    +0.051 C 
ATOM     19  C   LIG    1       -4.545   0.063  -0.709  0.00  0.00    +0.035 C 
ATOM     20  C   LIG    1       -3.087   0.196  -1.014  0.00  0.00    +0.120 C 
ATOM     21  C   LIG    1       -2.118  -0.300  -0.027  0.00  0.00    +0.041 C 
ENDROOT
BRANCH   3  22
ATOM     22  C   LIG    1       -0.560  -1.342   2.623  0.00  0.00    +0.202 C 
ATOM     23  O   LIG    1       -0.194  -0.351   3.209  0.00  0.00    -0.291 OA
BRANCH  22  24
ATOM     24  C   LIG    1        0.466  -2.393   2.389  0.00  0.00    +0.309 C 
BRANCH  24  25
ATOM     25  O   LIG    1        1.704  -2.089   2.943  0.00  0.00    -0.457 OA
BRANCH  25  26
ATOM     26  C   LIG    1        2.438  -0.981   2.559  0.00  0.00    +0.307 C 
ATOM     27  O   LIG    1        1.944  -0.239   1.680  0.00  0.00    -0.251 OA
BRANCH  26  28
ATOM     28  C   LIG    1        3.749  -0.656   3.134  0.00  0.00    +0.120 C 
BRANCH  28  29
ATOM     29  C   LIG    1        4.837  -0.301   2.147  0.00  0.00    +0.011 C 
BRANCH  29  30
ATOM     30  C   LIG    1        5.185  -1.397   1.208  0.00  0.00    +0.001 C 
BRANCH  30  31
ATOM     31  C   LIG    1        4.203  -1.873   0.240  0.00  0.00    +0.000 C 
BRANCH  31  32
ATOM     32  C   LIG    1        3.755  -1.028  -0.887  0.00  0.00    +0.009 C 
BRANCH  32  33
ATOM     33  C   LIG    1        4.757  -0.704  -1.936  0.00  0.00    +0.096 C 
BRANCH  33  34
ATOM     34  C   LIG    1        5.887   0.082  -1.453  0.00  0.00    +0.215 C 
ATOM     35  O   LIG    1        5.699   1.012  -0.633  0.00  0.00    -0.276 OA
ATOM     36  N   LIG    1        7.192  -0.233  -1.940  0.00  0.00    -0.303 N 
ATOM     37  C   LIG    1        7.335  -1.322  -2.881  0.00  0.00    +0.132 C 
BRANCH  36  38
ATOM     38  C   LIG    1        8.311   0.550  -1.475  0.00  0.00    +0.132 C 
BRANCH  38  39
ATOM     39  C   LIG    1        8.618   1.737  -2.330  0.00  0.00    +0.216 C 
BRANCH  39  40
ATOM     40  S   LIG    1       10.024   2.572  -1.608  0.00  0.00    +0.081 S 
ATOM     41  O   LIG    1        9.678   2.967  -0.193  0.00  0.00    -0.147 OA
ATOM     42  O   LIG    1       11.170   1.585  -1.601  0.00  0.00    -0.147 OA
BRANCH  40  43
ATOM     43  O   LIG    1       10.437   3.920  -2.519  0.00  0.00    -0.254 OA
ATOM     44  H   LIG    1       11.408   4.114  -2.431  0.00  0.00    +0.244 HD
ENDBRANCH  40  43
ENDBRANCH  39  40
ENDBRANCH  38  39
ENDBRANCH  36  38
ENDBRANCH  33  34
ENDBRANCH  32  33
ENDBRANCH  31  32
ENDBRANCH  30  31
ENDBRANCH  29  30
ENDBRANCH  28  29
ENDBRANCH  26  28
ENDBRANCH  25  26
ENDBRANCH  24  25
ENDBRANCH  22  24
ENDBRANCH   3  22
BRANCH  20  45
ATOM     45  O   LIG    1       -2.834   1.562  -1.229  0.00  0.00    -0.391 OA
ATOM     46  H   LIG    1       -1.904   1.678  -1.525  0.00  0.00    +0.210 HD
ENDBRANCH  20  45
BRANCH   3  47
ATOM     47  O   LIG    1       -2.071  -2.734   1.463  0.00  0.00    -0.380 OA
ATOM     48  H   LIG    1       -1.359  -2.828   0.808  0.00  0.00    +0.211 HD
ENDBRANCH   3  47
TORSDOF 17
