REMARK  Name = molecules/PSGAAPLEWMOORI-PEINSRQWSA-N.pdb
REMARK                            x       y       z     vdW  Elec       q    Type
REMARK                         _______ _______ _______ _____ _____    ______ ____
ROOT
ATOM      1  C   LIG    1        1.525   0.923  -1.884  0.00  0.00    +0.016 C 
ATOM      2  C   LIG    1        1.629  -0.121  -0.835  0.00  0.00    +0.018 C 
ATOM      3  C   LIG    1        1.069   0.483   0.468  0.00  0.00    +0.003 C 
ATOM      4  C   LIG    1        1.973   1.653   0.616  0.00  0.00    +0.009 C 
ATOM      5  C   LIG    1        3.333   1.063   0.206  0.00  0.00    +0.057 C 
ATOM      6  C   LIG    1       -0.387   0.756   0.416  0.00  0.00    -0.003 C 
ATOM      7  C   LIG    1       -0.861   0.863   1.862  0.00  0.00    +0.011 C 
ATOM      8  C   LIG    1       -2.338   0.790   2.023  0.00  0.00    +0.013 C 
ATOM      9  C   LIG    1       -2.729  -0.291   3.035  0.00  0.00    +0.012 C 
ATOM     10  C   LIG    1       -3.113   0.666   0.784  0.00  0.00    -0.057 C 
ATOM     11  C   LIG    1       -4.407   0.954   0.810  0.00  0.00    +0.046 C 
ATOM     12  C   LIG    1       -5.157   0.826  -0.418  0.00  0.00    +0.156 C 
ATOM     13  O   LIG    1       -6.176   1.551  -0.593  0.00  0.00    -0.293 OA
ATOM     14  C   LIG    1       -4.758  -0.138  -1.475  0.00  0.00    +0.080 C 
ATOM     15  C   LIG    1       -3.442  -0.781  -1.203  0.00  0.00    +0.019 C 
ATOM     16  C   LIG    1       -2.552   0.234  -0.522  0.00  0.00    -0.007 C 
ATOM     17  C   LIG    1       -2.436   1.477  -1.387  0.00  0.00    +0.016 C 
ATOM     18  C   LIG    1       -1.183  -0.335  -0.229  0.00  0.00    +0.002 C 
ATOM     19  C   LIG    1       -0.554  -0.946  -1.434  0.00  0.00    +0.005 C 
ATOM     20  C   LIG    1        3.040  -0.331  -0.317  0.00  0.00    +0.176 C 
ATOM     21  C   LIG    1        0.871  -1.361  -1.086  0.00  0.00    +0.011 C 
ENDROOT
BRANCH  20  22
ATOM     22  C   LIG    1        3.975  -0.795  -1.350  0.00  0.00    +0.174 C 
ATOM     23  O   LIG    1        4.479  -1.896  -1.186  0.00  0.00    -0.293 OA
ATOM     24  C   LIG    1        4.341  -0.033  -2.556  0.00  0.00    +0.090 C 
ENDBRANCH  20  22
BRANCH  20  25
ATOM     25  O   LIG    1        2.898  -1.265   0.738  0.00  0.00    -0.450 OA
BRANCH  25  26
ATOM     26  C   LIG    1        3.903  -1.758   1.516  0.00  0.00    +0.305 C 
ATOM     27  C   LIG    1        3.572  -2.744   2.589  0.00  0.00    +0.136 C 
ATOM     28  O   LIG    1        5.064  -1.373   1.312  0.00  0.00    -0.251 OA
ENDBRANCH  25  26
ENDBRANCH  20  25
TORSDOF 3
