REMARK  Name = molecules/PSVDIHULUCLEJE-MRXNPFEDSA-N.pdb
REMARK                            x       y       z     vdW  Elec       q    Type
REMARK                         _______ _______ _______ _____ _____    ______ ____
ROOT
ATOM      1  C   LIG    1        0.396  -1.020  -0.516  0.00  0.00    +0.420 C 
ATOM      2  O   LIG    1        1.071  -2.218  -0.109  0.00  0.00    -0.385 OA
ATOM      3  C   LIG    1        2.266  -2.158   0.595  0.00  0.00    +0.348 C 
ATOM      4  O   LIG    1        2.730  -3.130   1.242  0.00  0.00    -0.245 OA
ATOM      5  C   LIG    1        3.026  -0.926   0.593  0.00  0.00    +0.101 A 
ATOM      6  C   LIG    1        4.224  -0.762   1.260  0.00  0.00    +0.018 A 
ATOM      7  C   LIG    1        4.926   0.432   1.237  0.00  0.00    +0.001 A 
ATOM      8  C   LIG    1        4.406   1.493   0.521  0.00  0.00    +0.004 A 
ATOM      9  C   LIG    1        3.211   1.336  -0.145  0.00  0.00    +0.047 A 
ATOM     10  C   LIG    1        2.524   0.140  -0.113  0.00  0.00    +0.143 A 
ATOM     11  O   LIG    1        1.324   0.007  -0.792  0.00  0.00    -0.419 OA
ATOM     12  C   LIG    1       -0.303  -1.367  -1.819  0.00  0.00    +0.160 C 
ENDROOT
BRANCH   1  13
ATOM     13  O   LIG    1       -0.508  -0.697   0.492  0.00  0.00    -0.416 OA
BRANCH  13  14
ATOM     14  C   LIG    1       -1.432   0.323   0.491  0.00  0.00    +0.170 A 
ATOM     15  C   LIG    1       -1.148   1.591   0.961  0.00  0.00    +0.050 A 
ATOM     16  C   LIG    1       -2.110   2.595   0.941  0.00  0.00    +0.004 A 
ATOM     17  C   LIG    1       -3.379   2.360   0.454  0.00  0.00    +0.004 A 
ATOM     18  C   LIG    1       -3.662   1.096  -0.014  0.00  0.00    +0.049 A 
ATOM     19  C   LIG    1       -2.700   0.092   0.005  0.00  0.00    +0.162 A 
BRANCH  19  20
ATOM     20  O   LIG    1       -3.001  -1.169  -0.468  0.00  0.00    -0.491 OA
ATOM     21  C   LIG    1       -4.247  -1.544  -0.989  0.00  0.00    +0.277 C 
ENDBRANCH  19  20
ENDBRANCH  13  14
ENDBRANCH   1  13
TORSDOF 3
