REMARK  Name = molecules/PSWFFKRAVBDQEG-YGQNSOCVSA-N.pdb
REMARK                            x       y       z     vdW  Elec       q    Type
REMARK                         _______ _______ _______ _____ _____    ______ ____
ROOT
ATOM      1  CA  ASP A  3        0.364  -0.310  -0.880  0.00  0.00    +0.169 C 
ENDROOT
BRANCH   1   3
ATOM      2  C   LYS A  2       -1.883  -0.196   0.216  0.00  0.00    +0.234 C 
ATOM      3  N   ASP A  3       -0.583   0.309   0.005  0.00  0.00    -0.302 N 
ATOM      4  H   ASP A  3       -0.279   1.185   0.517  0.00  0.00    +0.150 HD
ATOM      5  O   LYS A  2       -2.306  -1.233  -0.348  0.00  0.00    -0.274 OA
BRANCH   2   6
ATOM      6  CA  LYS A  2       -2.812   0.527   1.147  0.00  0.00    +0.159 C 
BRANCH   6   8
ATOM      7  C   ARG A  1       -4.999   1.541   0.509  0.00  0.00    +0.230 C 
ATOM      8  N   LYS A  2       -4.184   0.358   0.754  0.00  0.00    -0.303 N 
ATOM      9  H   LYS A  2       -4.604  -0.555   0.614  0.00  0.00    +0.149 HD
ATOM     10  O   ARG A  1       -4.519   2.674   0.631  0.00  0.00    -0.274 OA
BRANCH   7  11
ATOM     11  CA  ARG A  1       -6.404   1.345   0.112  0.00  0.00    +0.138 C 
BRANCH  11  12
ATOM     12  N   ARG A  1       -7.071   2.640  -0.064  0.00  0.00    -0.320 NA
ATOM     13  H1  ARG A  1       -6.824   3.312   0.682  0.00  0.00    +0.119 HD
ATOM     14  H2  ARG A  1       -6.953   2.982  -1.036  0.00  0.00    +0.119 HD
ENDBRANCH  11  12
BRANCH  11  15
ATOM     15  CB  ARG A  1       -6.513   0.623  -1.216  0.00  0.00    +0.031 C 
BRANCH  15  16
ATOM     16  CG  ARG A  1       -7.958   0.455  -1.579  0.00  0.00    +0.039 C 
BRANCH  16  17
ATOM     17  CD  ARG A  1       -8.734  -0.353  -0.601  0.00  0.00    +0.196 C 
BRANCH  17  18
ATOM     18  NE  ARG A  1      -10.114  -0.497  -1.013  0.00  0.00    -0.276 N 
ATOM     19  HE  ARG A  1      -10.466  -1.419  -1.308  0.00  0.00    +0.258 HD
BRANCH  18  20
ATOM     20  CZ  ARG A  1      -11.021   0.607  -1.027  0.00  0.00    +0.376 C 
ATOM     21  NH2 ARG A  1      -10.617   1.869  -0.510  0.00  0.00    -0.289 N 
ATOM     22 HH21 ARG A  1      -10.487   2.058   0.505  0.00  0.00    +0.255 HD
ATOM     23 HH22 ARG A  1      -10.443   2.638  -1.181  0.00  0.00    +0.255 HD
BRANCH  20  24
ATOM     24  NH1 ARG A  1      -12.204   0.481  -1.508  0.00  0.00    -0.130 NA
ATOM     25  HH1 ARG A  1      -12.624  -0.360  -1.913  0.00  0.00    +0.306 HD
ENDBRANCH  20  24
ENDBRANCH  18  20
ENDBRANCH  17  18
ENDBRANCH  16  17
ENDBRANCH  15  16
ENDBRANCH  11  15
ENDBRANCH   7  11
ENDBRANCH   6   8
BRANCH   6  26
ATOM     26  CB  LYS A  2       -2.470   0.246   2.559  0.00  0.00    +0.032 C 
BRANCH  26  27
ATOM     27  CG  LYS A  2       -2.647  -1.070   3.164  0.00  0.00    +0.003 C 
BRANCH  27  28
ATOM     28  CD  LYS A  2       -4.016  -1.667   3.264  0.00  0.00    +0.015 C 
BRANCH  28  29
ATOM     29  CE  LYS A  2       -3.816  -3.013   4.024  0.00  0.00    +0.077 C 
BRANCH  29  30
ATOM     30  NZ  LYS A  2       -5.060  -3.703   4.188  0.00  0.00    -0.330 NA
ATOM     31  HZ1 LYS A  2       -4.853  -4.739   4.130  0.00  0.00    +0.118 HD
ATOM     32  HZ2 LYS A  2       -5.675  -3.500   3.367  0.00  0.00    +0.118 HD
ENDBRANCH  29  30
ENDBRANCH  28  29
ENDBRANCH  27  28
ENDBRANCH  26  27
ENDBRANCH   6  26
ENDBRANCH   2   6
ENDBRANCH   1   3
BRANCH   1  33
ATOM     33  C   ASP A  3        1.729  -0.333  -0.327  0.00  0.00    +0.234 C 
ATOM     34  O   ASP A  3        1.925   0.113   0.824  0.00  0.00    -0.274 OA
ATOM     35  N   VAL A  4        2.842  -0.839  -1.051  0.00  0.00    -0.302 N 
ATOM     36  H   VAL A  4        2.654  -1.217  -2.009  0.00  0.00    +0.150 HD
BRANCH  35  37
ATOM     37  CA  VAL A  4        4.194  -0.859  -0.537  0.00  0.00    +0.161 C 
BRANCH  37  38
ATOM     38  C   VAL A  4        4.963   0.190  -1.224  0.00  0.00    +0.234 C 
ATOM     39  N   TYR A  5        6.305   0.533  -1.033  0.00  0.00    -0.301 N 
ATOM     40  H   TYR A  5        6.864   0.015  -0.330  0.00  0.00    +0.150 HD
ATOM     41  O   VAL A  4        4.340   0.876  -2.103  0.00  0.00    -0.274 OA
BRANCH  39  42
ATOM     42  CA  TYR A  5        6.980   1.590  -1.758  0.00  0.00    +0.186 C 
BRANCH  42  43
ATOM     43  C   TYR A  5        8.128   1.007  -2.458  0.00  0.00    +0.326 C 
ATOM     44  OXT TYR A  5        8.470  -0.209  -2.410  0.00  0.00    -0.249 OA
BRANCH  43  45
ATOM     45  O   TYR A  5        8.923   1.840  -3.246  0.00  0.00    -0.479 OA
ATOM     46  H   TYR A  5        8.441   2.541  -3.789  0.00  0.00    +0.295 HD
ENDBRANCH  43  45
ENDBRANCH  42  43
BRANCH  42  47
ATOM     47  CB  TYR A  5        7.435   2.629  -0.736  0.00  0.00    +0.069 C 
BRANCH  47  48
ATOM     48  CG  TYR A  5        8.366   2.066   0.271  0.00  0.00    -0.045 A 
ATOM     49  CD2 TYR A  5        7.966   1.496   1.443  0.00  0.00    +0.007 A 
ATOM     50  CE2 TYR A  5        8.837   0.983   2.369  0.00  0.00    +0.045 A 
ATOM     51  CZ  TYR A  5       10.195   1.054   2.087  0.00  0.00    +0.117 A 
ATOM     52  CE1 TYR A  5       10.649   1.627   0.904  0.00  0.00    +0.045 A 
ATOM     53  CD1 TYR A  5        9.737   2.131  -0.002  0.00  0.00    +0.007 A 
BRANCH  51  54
ATOM     54  OH  TYR A  5       11.086   0.552   2.990  0.00  0.00    -0.507 OA
ATOM     55  HH  TYR A  5       12.081   0.547   2.894  0.00  0.00    +0.292 HD
ENDBRANCH  51  54
ENDBRANCH  47  48
ENDBRANCH  42  47
ENDBRANCH  39  42
ENDBRANCH  37  38
BRANCH  37  56
ATOM     56  CB  VAL A  4        4.731  -2.241  -0.662  0.00  0.00    +0.012 C 
ATOM     57  CG2 VAL A  4        3.800  -3.167   0.094  0.00  0.00    +0.009 C 
ATOM     58  CG1 VAL A  4        6.119  -2.469  -0.183  0.00  0.00    +0.009 C 
ENDBRANCH  37  56
ENDBRANCH  35  37
ENDBRANCH   1  33
BRANCH   1  59
ATOM     59  CB  ASP A  3        0.359   0.390  -2.247  0.00  0.00    +0.152 C 
BRANCH  59  60
ATOM     60  CG  ASP A  3       -0.978   0.307  -2.869  0.00  0.00    +0.307 C 
ATOM     61  OD2 ASP A  3       -1.731   1.314  -2.981  0.00  0.00    -0.251 OA
BRANCH  60  62
ATOM     62  OD1 ASP A  3       -1.434  -0.904  -3.347  0.00  0.00    -0.481 OA
ATOM     63  HD1 ASP A  3       -0.903  -1.387  -4.052  0.00  0.00    +0.295 HD
ENDBRANCH  60  62
ENDBRANCH  59  60
ENDBRANCH   1  59
TORSDOF 29
