REMARK  Name = molecules/PSWOBQSIXLVPDV-UHFFFAOYSA-N.pdb
REMARK                            x       y       z     vdW  Elec       q    Type
REMARK                         _______ _______ _______ _____ _____    ______ ____
ROOT
ATOM      1  N   LIG    1        0.381  -0.168  -1.214  0.00  0.00    -0.187 NA
ATOM      2  C   LIG    1       -0.413   0.316  -0.331  0.00  0.00    +0.138 C 
ENDROOT
BRANCH   2   3
ATOM      3  C   LIG    1       -1.824  -0.008  -0.438  0.00  0.00    -0.002 A 
ATOM      4  C   LIG    1       -2.695   0.499   0.498  0.00  0.00    +0.058 A 
ATOM      5  C   LIG    1       -4.055   0.230   0.456  0.00  0.00    +0.162 A 
ATOM      6  C   LIG    1       -4.516  -0.574  -0.567  0.00  0.00    +0.158 A 
ATOM      7  C   LIG    1       -3.667  -1.106  -1.532  0.00  0.00    +0.050 A 
ATOM      8  C   LIG    1       -2.304  -0.805  -1.447  0.00  0.00    +0.013 A 
BRANCH   5   9
ATOM      9  O   LIG    1       -4.934   0.741   1.400  0.00  0.00    -0.491 OA
ATOM     10  C   LIG    1       -4.400   1.557   2.422  0.00  0.00    +0.277 C 
ENDBRANCH   5   9
BRANCH   6  11
ATOM     11  O   LIG    1       -5.881  -0.842  -0.606  0.00  0.00    -0.503 OA
ATOM     12  H   LIG    1       -6.295  -1.422  -1.324  0.00  0.00    +0.292 HD
ENDBRANCH   6  11
ENDBRANCH   2   3
BRANCH   1  15
ATOM     13  C   LIG    1        2.548  -0.704  -0.309  0.00  0.00    +0.263 C 
ATOM     14  O   LIG    1        2.042  -1.730   0.245  0.00  0.00    -0.268 OA
ATOM     15  N   LIG    1        1.757   0.166  -1.086  0.00  0.00    -0.203 N 
ATOM     16  H   LIG    1        2.061   1.023  -1.574  0.00  0.00    +0.178 HD
BRANCH  13  21
ATOM     17  C   LIG    1        5.925   0.819  -0.737  0.00  0.00    +0.111 A 
ATOM     18  N   LIG    1        6.610   0.104   0.163  0.00  0.00    -0.263 NA
ATOM     19  C   LIG    1        6.043  -0.856   0.916  0.00  0.00    +0.111 A 
ATOM     20  C   LIG    1        4.714  -1.149   0.792  0.00  0.00    +0.033 A 
ATOM     21  C   LIG    1        3.970  -0.426  -0.133  0.00  0.00    +0.041 A 
ATOM     22  C   LIG    1        4.567   0.537  -0.881  0.00  0.00    +0.033 A 
ENDBRANCH  13  21
ENDBRANCH   1  15
TORSDOF 5
