REMARK  Name = molecules/PTGXAUBQBSGPKF-ZRGWGRIASA-N.pdb
REMARK                            x       y       z     vdW  Elec       q    Type
REMARK                         _______ _______ _______ _____ _____    ______ ____
ROOT
ATOM      1  C   LIG    1       -0.965  -1.448  -0.613  0.00  0.00    +0.084 C 
ATOM      2  C   LIG    1       -1.475  -2.653   0.124  0.00  0.00    +0.027 C 
ENDROOT
BRANCH   1   3
ATOM      3  N   LIG    1       -0.232  -0.514   0.164  0.00  0.00    -0.308 NA
ATOM      4  H   LIG    1        0.177   0.203  -0.464  0.00  0.00    +0.123 HD
BRANCH   3   5
ATOM      5  C   LIG    1        0.826  -1.050   0.973  0.00  0.00    +0.051 C 
ATOM      6  C   LIG    1        1.323   0.014   1.904  0.00  0.00    +0.024 C 
BRANCH   5   7
ATOM      7  C   LIG    1        1.928  -1.705   0.255  0.00  0.00    +0.023 C 
BRANCH   7   8
ATOM      8  C   LIG    1        2.709  -0.942  -0.747  0.00  0.00    +0.036 C 
BRANCH   8   9
ATOM      9  C   LIG    1        3.432   0.249  -0.281  0.00  0.00    -0.047 A 
ATOM     10  C   LIG    1        4.714   0.119   0.273  0.00  0.00    +0.003 A 
ATOM     11  C   LIG    1        5.451   1.170   0.724  0.00  0.00    +0.000 A 
ATOM     12  C   LIG    1        4.937   2.446   0.648  0.00  0.00    +0.000 A 
ATOM     13  C   LIG    1        3.689   2.623   0.115  0.00  0.00    +0.000 A 
ATOM     14  C   LIG    1        2.957   1.538  -0.338  0.00  0.00    +0.003 A 
ENDBRANCH   8   9
ENDBRANCH   7   8
ENDBRANCH   5   7
ENDBRANCH   3   5
ENDBRANCH   1   3
BRANCH   1  15
ATOM     15  C   LIG    1       -2.016  -0.764  -1.410  0.00  0.00    +0.161 C 
BRANCH  15  16
ATOM     16  C   LIG    1       -2.969   0.076  -0.665  0.00  0.00    -0.017 A 
ATOM     17  C   LIG    1       -2.916   0.299   0.686  0.00  0.00    +0.010 A 
ATOM     18  C   LIG    1       -3.853   1.112   1.277  0.00  0.00    +0.046 A 
ATOM     19  C   LIG    1       -4.859   1.723   0.570  0.00  0.00    +0.117 A 
ATOM     20  C   LIG    1       -4.911   1.497  -0.790  0.00  0.00    +0.046 A 
ATOM     21  C   LIG    1       -3.988   0.697  -1.372  0.00  0.00    +0.010 A 
BRANCH  19  22
ATOM     22  O   LIG    1       -5.812   2.553   1.189  0.00  0.00    -0.507 OA
ATOM     23  H   LIG    1       -6.517   2.969   0.629  0.00  0.00    +0.292 HD
ENDBRANCH  19  22
ENDBRANCH  15  16
BRANCH  15  24
ATOM     24  O   LIG    1       -2.748  -1.676  -2.217  0.00  0.00    -0.386 OA
ATOM     25  H   LIG    1       -3.491  -1.985  -1.612  0.00  0.00    +0.210 HD
ENDBRANCH  15  24
ENDBRANCH   1  15
TORSDOF 9
