REMARK  Name = molecules/PTHLEKANMPKYDB-UHFFFAOYSA-N.pdb
REMARK                            x       y       z     vdW  Elec       q    Type
REMARK                         _______ _______ _______ _____ _____    ______ ____
ROOT
ATOM      1  C   LIG    1       -0.110  -0.316  -0.232  0.00  0.00    +0.100 A 
ATOM      2  C   LIG    1       -0.724   0.845   0.169  0.00  0.00    +0.134 A 
ATOM      3  C   LIG    1       -2.114   0.956   0.173  0.00  0.00    +0.091 A 
ATOM      4  C   LIG    1       -2.917  -0.093  -0.225  0.00  0.00    +0.124 A 
ATOM      5  C   LIG    1       -2.314  -1.266  -0.631  0.00  0.00    +0.091 A 
ATOM      6  C   LIG    1       -0.949  -1.362  -0.629  0.00  0.00    +0.134 A 
ENDROOT
BRANCH   1   7
ATOM      7  C   LIG    1        1.318  -0.454  -0.243  0.00  0.00    +0.170 C 
ATOM      8  O   LIG    1        1.810  -1.560  -0.628  0.00  0.00    -0.292 OA
BRANCH   7   9
ATOM      9  C   LIG    1        2.206   0.649   0.177  0.00  0.00    +0.076 C 
ATOM     10  C   LIG    1        3.667   0.247   0.069  0.00  0.00    +0.012 C 
ENDBRANCH   7   9
ENDBRANCH   1   7
BRANCH   2  11
ATOM     11  O   LIG    1        0.044   1.927   0.578  0.00  0.00    -0.506 OA
ATOM     12  H   LIG    1       -0.377   2.793   0.878  0.00  0.00    +0.292 HD
ENDBRANCH   2  11
BRANCH   4  13
ATOM     13  O   LIG    1       -4.315   0.008  -0.226  0.00  0.00    -0.507 OA
ATOM     14  H   LIG    1       -4.714   0.878   0.076  0.00  0.00    +0.292 HD
ENDBRANCH   4  13
BRANCH   6  15
ATOM     15  O   LIG    1       -0.344  -2.536  -1.035  0.00  0.00    -0.506 OA
ATOM     16  H   LIG    1       -0.923  -3.302  -1.325  0.00  0.00    +0.292 HD
ENDBRANCH   6  15
TORSDOF 5
