REMARK  Name = molecules/PTKSEFOSCHHMPD-SNVBAGLBSA-N.pdb
REMARK                            x       y       z     vdW  Elec       q    Type
REMARK                         _______ _______ _______ _____ _____    ______ ____
ROOT
ATOM      1  C   LIG    1        0.589  -0.537  -0.017  0.00  0.00    +0.165 C 
ENDROOT
BRANCH   1   2
ATOM      2  C   LIG    1       -0.810  -0.093   0.164  0.00  0.00    +0.027 A 
ATOM      3  C   LIG    1       -1.751  -1.138   0.243  0.00  0.00    +0.126 A 
ATOM      4  C   LIG    1       -3.069  -0.798   0.270  0.00  0.00    +0.049 A 
ATOM      5  C   LIG    1       -3.482   0.538   0.225  0.00  0.00    +0.049 A 
ATOM      6  C   LIG    1       -2.564   1.573   0.151  0.00  0.00    +0.121 A 
ATOM      7  C   LIG    1       -1.218   1.222   0.124  0.00  0.00    +0.055 A 
BRANCH   3   8
ATOM      8  O   LIG    1       -1.286  -2.434   0.293  0.00  0.00    -0.495 OA
ATOM      9  C   LIG    1       -1.978  -3.617   0.400  0.00  0.00    +0.277 C 
ENDBRANCH   3   8
BRANCH   6  10
ATOM     10  O   LIG    1       -2.961   2.905   0.102  0.00  0.00    -0.495 OA
ATOM     11  C   LIG    1       -4.305   3.294   0.158  0.00  0.00    +0.277 C 
ENDBRANCH   6  10
ENDBRANCH   1   2
BRANCH   1  12
ATOM     12  O   LIG    1        0.623  -1.694  -0.772  0.00  0.00    -0.386 OA
ATOM     13  H   LIG    1        0.162  -1.439  -1.651  0.00  0.00    +0.210 HD
ENDBRANCH   1  12
BRANCH   1  14
ATOM     14  C   LIG    1        1.440  -0.437   1.189  0.00  0.00    +0.140 C 
BRANCH  14  15
ATOM     15  N   LIG    1        2.841  -0.551   0.872  0.00  0.00    -0.311 N 
ATOM     16  H   LIG    1        3.347  -1.430   1.211  0.00  0.00    +0.149 HD
ATOM     17  C   LIG    1        3.608   0.401   0.152  0.00  0.00    +0.227 C 
ATOM     18  O   LIG    1        3.118   1.501  -0.272  0.00  0.00    -0.274 OA
BRANCH  17  19
ATOM     19  C   LIG    1        5.016   0.129  -0.122  0.00  0.00    +0.174 C 
BRANCH  19  20
ATOM     20  N   LIG    1        5.601   1.304  -0.800  0.00  0.00    -0.322 NA
ATOM     21  H   LIG    1        5.938   1.897   0.017  0.00  0.00    +0.119 HD
ATOM     22  H   LIG    1        6.370   1.039  -1.460  0.00  0.00    +0.119 HD
ENDBRANCH  19  20
ENDBRANCH  17  19
ENDBRANCH  14  15
ENDBRANCH   1  14
TORSDOF 8
