REMARK  Name = molecules/PTOAARAWEBMLNO-KVQBGUIXSA-N.pdb
REMARK                            x       y       z     vdW  Elec       q    Type
REMARK                         _______ _______ _______ _____ _____    ______ ____
ROOT
ATOM      1  C   LIG    1        4.080  -0.605  -0.230  0.00  0.00    +0.149 A 
ATOM      2  N   LIG    1        4.288  -1.015   1.030  0.00  0.00    -0.201 NA
ATOM      3  C   LIG    1        3.282  -1.002   1.929  0.00  0.00    +0.226 A 
ATOM      4 CL   LIG    1        3.589  -1.545   3.566  0.00  0.00    -0.041 Cl
ATOM      5  N   LIG    1        2.077  -0.572   1.536  0.00  0.00    -0.198 NA
ATOM      6  C   LIG    1        1.803  -0.148   0.286  0.00  0.00    +0.169 A 
ATOM      7  N   LIG    1        0.675   0.316  -0.299  0.00  0.00    -0.288 N 
ATOM      8  C   LIG    1        1.011   0.586  -1.573  0.00  0.00    +0.203 A 
ATOM      9  N   LIG    1        2.304   0.300  -1.770  0.00  0.00    -0.231 NA
ATOM     10  C   LIG    1        2.842  -0.164  -0.630  0.00  0.00    +0.147 A 
ENDROOT
BRANCH   7  11
ATOM     11  C1* LIG    1       -0.583   0.463   0.359  0.00  0.00    +0.225 C 
ATOM     12  O4* LIG    1       -1.413  -0.618   0.065  0.00  0.00    -0.348 OA
ATOM     13  C4* LIG    1       -2.705  -0.216   0.396  0.00  0.00    +0.175 C 
ATOM     14  C3* LIG    1       -2.772   1.194  -0.164  0.00  0.00    +0.150 C 
ATOM     15  C2* LIG    1       -1.351   1.687  -0.042  0.00  0.00    +0.088 C 
BRANCH  14  16
ATOM     16  O3* LIG    1       -3.646   1.998   0.547  0.00  0.00    -0.389 OA
ATOM     17  H3* LIG    1       -3.215   2.243   1.400  0.00  0.00    +0.210 HD
ENDBRANCH  14  16
BRANCH  13  18
ATOM     18  C5* LIG    1       -3.669  -1.099  -0.351  0.00  0.00    +0.190 C 
BRANCH  18  19
ATOM     19  O5* LIG    1       -3.485  -2.433   0.005  0.00  0.00    -0.392 OA
ATOM     20  H5* LIG    1       -2.669  -2.600   0.514  0.00  0.00    +0.210 HD
ENDBRANCH  18  19
ENDBRANCH  13  18
ENDBRANCH   7  11
BRANCH   1  21
ATOM     21  N   LIG    1        5.144  -0.624  -1.159  0.00  0.00    -0.341 N 
ATOM     22  H   LIG    1        5.652  -1.517  -1.395  0.00  0.00    +0.144 HD
ATOM     23  H   LIG    1        5.457   0.243  -1.638  0.00  0.00    +0.144 HD
ENDBRANCH   1  21
TORSDOF 5
