REMARK  Name = molecules/PTOIAAWZLUQTIO-GXFFZTMASA-N.pdb
REMARK                            x       y       z     vdW  Elec       q    Type
REMARK                         _______ _______ _______ _____ _____    ______ ____
ROOT
ATOM      1  C   LIG    1       -0.345  -0.017  -0.588  0.00  0.00    +0.024 C 
ATOM      2  C   LIG    1        0.394   1.022  -1.332  0.00  0.00    +0.014 C 
ATOM      3  C   LIG    1        0.416  -0.392  -1.825  0.00  0.00    +0.014 C 
ENDROOT
BRANCH   1  11
ATOM      4  C   LIG    1       -3.870  -0.183  -1.947  0.00  0.00    +0.004 A 
ATOM      5  C   LIG    1       -4.611  -0.077  -0.803  0.00  0.00    +0.046 A 
ATOM      6  C   LIG    1       -3.959   0.038   0.388  0.00  0.00    +0.124 A 
ATOM      7  O   LIG    1       -4.474   0.158   1.673  0.00  0.00    -0.491 OA
ATOM      8  C   LIG    1       -3.451   0.315   2.623  0.00  0.00    +0.234 C 
ATOM      9  C   LIG    1       -2.139   0.186   1.878  0.00  0.00    +0.080 C 
ATOM     10  C   LIG    1       -2.597   0.053   0.479  0.00  0.00    +0.001 A 
ATOM     11  C   LIG    1       -1.835  -0.053  -0.678  0.00  0.00    -0.037 A 
ATOM     12  C   LIG    1       -2.464  -0.169  -1.873  0.00  0.00    +0.004 A 
ENDBRANCH   1  11
BRANCH   3  13
ATOM     13  C   LIG    1        1.693  -1.140  -1.795  0.00  0.00    +0.108 C 
BRANCH  13  14
ATOM     14  N   LIG    1        2.847  -0.651  -1.208  0.00  0.00    -0.315 N 
ATOM     15  C   LIG    1        3.151  -0.342   0.104  0.00  0.00    +0.213 C 
ATOM     16  O   LIG    1        2.350  -0.488   1.043  0.00  0.00    -0.276 OA
ATOM     17  H   LIG    1        3.682  -0.467  -1.896  0.00  0.00    +0.149 HD
BRANCH  15  18
ATOM     18  C   LIG    1        4.533   0.213   0.467  0.00  0.00    +0.092 C 
ATOM     19  C   LIG    1        4.645   0.504   1.924  0.00  0.00    +0.013 C 
ENDBRANCH  15  18
ENDBRANCH  13  14
ENDBRANCH   3  13
TORSDOF 4
