REMARK  Name = molecules/PTOJVMZPWPAXER-WJDBPCAHSA-N.pdb
REMARK                            x       y       z     vdW  Elec       q    Type
REMARK                         _______ _______ _______ _____ _____    ______ ____
ROOT
ATOM      1  C   LIG    1        1.181  -1.492   0.033  0.00  0.00    +0.069 C 
ATOM      2  C   LIG    1        1.900  -2.610   0.751  0.00  0.00    +0.140 C 
ATOM      3  C   LIG    1        1.292  -2.614   2.116  0.00  0.00    +0.106 C 
ATOM      4  C   LIG    1       -0.056  -1.944   1.967  0.00  0.00    +0.129 C 
ATOM      5  O   LIG    1        2.764  -3.322   0.302  0.00  0.00    -0.297 OA
ATOM      6  C   LIG    1       -0.240  -1.764   0.451  0.00  0.00    +0.051 C 
ENDROOT
BRANCH   4   7
ATOM      7  O   LIG    1       -1.093  -2.645   2.527  0.00  0.00    -0.391 OA
ATOM      8  H   LIG    1       -1.341  -2.186   3.394  0.00  0.00    +0.210 HD
ENDBRANCH   4   7
BRANCH   6   9
ATOM      9  C   LIG    1       -1.153  -0.643   0.161  0.00  0.00    -0.022 C 
ATOM     10  C   LIG    1       -2.267  -0.896  -0.513  0.00  0.00    +0.003 C 
BRANCH  10  11
ATOM     11  C   LIG    1       -3.245   0.172  -0.848  0.00  0.00    +0.174 C 
BRANCH  11  12
ATOM     12  O   LIG    1       -2.835   0.943  -1.959  0.00  0.00    -0.384 OA
ATOM     13  H   LIG    1       -3.312   0.692  -2.789  0.00  0.00    +0.210 HD
ENDBRANCH  11  12
BRANCH  11  14
ATOM     14  C   LIG    1       -3.486   1.092   0.323  0.00  0.00    +0.264 C 
BRANCH  14  15
ATOM     15  O   LIG    1       -4.482   2.030   0.178  0.00  0.00    -0.489 OA
BRANCH  15  16
ATOM     16  C   LIG    1       -5.832   1.905   0.038  0.00  0.00    +0.121 A 
ATOM     17  C   LIG    1       -6.482   0.696   0.053  0.00  0.00    +0.045 A 
ATOM     18  C   LIG    1       -7.859   0.655  -0.102  0.00  0.00    +0.004 A 
ATOM     19  C   LIG    1       -8.623   1.784  -0.272  0.00  0.00    +0.000 A 
ATOM     20  C   LIG    1       -7.961   3.005  -0.286  0.00  0.00    +0.004 A 
ATOM     21  C   LIG    1       -6.609   3.068  -0.136  0.00  0.00    +0.045 A 
ENDBRANCH  15  16
ENDBRANCH  14  15
ENDBRANCH  11  14
ENDBRANCH  10  11
ENDBRANCH   6   9
BRANCH   1  22
ATOM     22  C   LIG    1        1.337  -1.643  -1.459  0.00  0.00    +0.047 C 
BRANCH  22  25
ATOM     23  C   LIG    1        3.909   0.546  -0.658  0.00  0.00    +0.024 C 
ATOM     24  C   LIG    1        3.316  -0.392  -1.363  0.00  0.00    -0.128 C 
ATOM     25  C   LIG    1        2.687  -1.392  -1.937  0.00  0.00    +0.025 C 
BRANCH  23  26
ATOM     26  C   LIG    1        4.600   0.113   0.541  0.00  0.00    +0.046 C 
BRANCH  26  27
ATOM     27  C   LIG    1        6.003  -0.420   0.212  0.00  0.00    +0.125 C 
BRANCH  27  28
ATOM     28  C   LIG    1        6.731   0.723  -0.440  0.00  0.00    +0.307 C 
ATOM     29  O   LIG    1        6.261   1.304  -1.451  0.00  0.00    -0.251 OA
BRANCH  28  31
ATOM     30  C   LIG    1        8.670   2.259  -0.529  0.00  0.00    +0.280 C 
ATOM     31  O   LIG    1        7.961   1.191   0.053  0.00  0.00    -0.468 OA
ENDBRANCH  28  31
ENDBRANCH  27  28
ENDBRANCH  26  27
ENDBRANCH  23  26
ENDBRANCH  22  25
ENDBRANCH   1  22
TORSDOF 13
