REMARK  Name = molecules/PTXGHCGBYMQQIG-RRHRGVEJSA-N.pdb
REMARK                            x       y       z     vdW  Elec       q    Type
REMARK                         _______ _______ _______ _____ _____    ______ ____
ROOT
ATOM      1  N   LIG    1        3.004  -0.717  -1.244  0.00  0.00    -0.297 NA
ATOM      2  C   LIG    1        2.153   0.480  -0.962  0.00  0.00    +0.100 C 
ATOM      3  C   LIG    1        1.046   0.377  -1.971  0.00  0.00    +0.100 C 
ATOM      4  N   LIG    1        0.063  -0.587  -1.525  0.00  0.00    -0.300 NA
ATOM      5  C   LIG    1        0.763  -1.831  -1.317  0.00  0.00    +0.100 C 
ATOM      6  C   LIG    1        2.194  -1.783  -1.752  0.00  0.00    +0.100 C 
ENDROOT
BRANCH   4   7
ATOM      7  C   LIG    1       -0.495  -0.144  -0.240  0.00  0.00    +0.088 C 
BRANCH   7   8
ATOM      8  C   LIG    1       -1.041   1.232  -0.371  0.00  0.00    +0.056 C 
BRANCH   8   9
ATOM      9  C   LIG    1       -2.137   1.242  -1.381  0.00  0.00    +0.233 C 
BRANCH   9  10
ATOM     10  O   LIG    1       -3.237   0.461  -0.755  0.00  0.00    -0.465 OA
BRANCH  10  11
ATOM     11  C   LIG    1       -3.819   1.248   0.326  0.00  0.00    +0.307 C 
ATOM     12  O   LIG    1       -3.314   2.363   0.508  0.00  0.00    -0.251 OA
BRANCH  11  13
ATOM     13  C   LIG    1       -4.943   0.673   1.079  0.00  0.00    +0.123 C 
BRANCH  13  14
ATOM     14  C   LIG    1       -5.812  -0.345   0.512  0.00  0.00    +0.043 C 
BRANCH  14  15
ATOM     15  C   LIG    1       -7.189  -0.175   1.516  0.00  0.00    +0.160 C 
BRANCH  15  16
ATOM     16  N   LIG    1       -7.497   1.102   1.027  0.00  0.00    -0.300 N 
ATOM     17  H   LIG    1       -7.251   1.611   2.242  0.00  0.00    +0.150 HD
ATOM     18  C   LIG    1       -7.793   2.351   0.560  0.00  0.00    +0.245 C 
ATOM     19  O   LIG    1       -7.577   3.498   1.029  0.00  0.00    -0.270 OA
BRANCH  18  20
ATOM     20  C   LIG    1       -8.547   2.417  -0.766  0.00  0.00    +0.037 A 
ATOM     21  C   LIG    1       -9.926   2.251  -0.692  0.00  0.00    +0.013 A 
ATOM     22  C   LIG    1      -10.637   2.198  -1.834  0.00  0.00    +0.001 A 
ATOM     23  C   LIG    1      -10.029   2.297  -3.084  0.00  0.00    +0.000 A 
ATOM     24  C   LIG    1       -8.636   2.462  -3.160  0.00  0.00    +0.001 A 
ATOM     25  C   LIG    1       -7.933   2.516  -1.942  0.00  0.00    +0.013 A 
ENDBRANCH  18  20
ENDBRANCH  15  16
BRANCH  15  26
ATOM     26  C   LIG    1       -8.068  -1.209   0.817  0.00  0.00    +0.236 C 
ATOM     27  N   LIG    1       -9.489  -1.102   1.016  0.00  0.00    -0.300 N 
ATOM     28  O   LIG    1       -7.595  -2.067   0.097  0.00  0.00    -0.274 OA
BRANCH  27  29
ATOM     29  C   LIG    1       -9.940  -0.248   2.056  0.00  0.00    +0.107 C 
BRANCH  29  30
ATOM     30  C   LIG    1      -11.275  -0.292   2.611  0.00  0.00    +0.016 C 
ATOM     31  C   LIG    1      -12.409   0.117   1.658  0.00  0.00    +0.005 C 
ENDBRANCH  29  30
ENDBRANCH  27  29
BRANCH  27  32
ATOM     32  C   LIG    1      -10.323  -1.927   0.194  0.00  0.00    +0.107 C 
BRANCH  32  33
ATOM     33  C   LIG    1      -10.660  -3.277   0.723  0.00  0.00    +0.016 C 
ATOM     34  C   LIG    1      -11.763  -3.929  -0.114  0.00  0.00    +0.005 C 
ENDBRANCH  32  33
ENDBRANCH  27  32
ENDBRANCH  15  26
ENDBRANCH  14  15
ENDBRANCH  13  14
ENDBRANCH  11  13
ENDBRANCH  10  11
ENDBRANCH   9  10
ENDBRANCH   8   9
ENDBRANCH   7   8
ENDBRANCH   4   7
BRANCH   1  35
ATOM     35  C   LIG    1        3.865  -0.347  -2.352  0.00  0.00    +0.125 C 
BRANCH  35  36
ATOM     36  C   LIG    1        5.142   0.366  -1.937  0.00  0.00    +0.247 C 
BRANCH  36  37
ATOM     37  O   LIG    1        5.844  -0.533  -1.128  0.00  0.00    -0.463 OA
BRANCH  37  38
ATOM     38  C   LIG    1        5.632  -0.868   0.117  0.00  0.00    +0.312 C 
ATOM     39  O   LIG    1        4.729  -0.353   0.849  0.00  0.00    -0.250 OA
BRANCH  38  40
ATOM     40  C   LIG    1        6.533  -1.950   0.717  0.00  0.00    +0.158 C 
BRANCH  40  46
ATOM     41  C   LIG    1       10.319   0.452   2.861  0.00  0.00    +0.263 C 
ATOM     42  O   LIG    1        9.792   0.766   4.002  0.00  0.00    -0.267 OA
ATOM     43  N   LIG    1        9.554  -0.210   1.880  0.00  0.00    -0.280 N 
ATOM     44  C   LIG    1        8.304  -0.733   2.141  0.00  0.00    +0.028 A 
ATOM     45  C   LIG    1        7.599  -0.677   3.481  0.00  0.00    +0.064 C 
ATOM     46  C   LIG    1        7.813  -1.334   1.055  0.00  0.00    -0.008 A 
ATOM     47  C   LIG    1        8.809  -1.178   0.059  0.00  0.00    +0.008 A 
ATOM     48  C   LIG    1        8.784  -1.503  -1.288  0.00  0.00    +0.056 A 
ATOM     49  C   LIG    1        9.838  -1.125  -2.097  0.00  0.00    +0.121 A 
ATOM     50  C   LIG    1       10.892  -0.446  -1.572  0.00  0.00    +0.048 A 
ATOM     51  C   LIG    1       10.881  -0.124  -0.203  0.00  0.00    +0.030 A 
ATOM     52  C   LIG    1        9.884  -0.466   0.614  0.00  0.00    +0.057 A 
BRANCH  41  53
ATOM     53  C   LIG    1       11.727   0.823   2.685  0.00  0.00    +0.040 A 
ATOM     54  C   LIG    1       12.716  -0.169   2.795  0.00  0.00    +0.015 A 
ATOM     55  C   LIG    1       13.999   0.201   2.550  0.00  0.00    +0.021 A 
ATOM     56  C   LIG    1       14.408   1.497   2.208  0.00  0.00    +0.041 A 
ATOM     57  C   LIG    1       13.444   2.471   2.097  0.00  0.00    +0.021 A 
ATOM     58 CL   LIG    1       16.080   1.848   1.877  0.00  0.00    -0.084 Cl
ATOM     59  C   LIG    1       12.092   2.094   2.349  0.00  0.00    +0.015 A 
ENDBRANCH  41  53
BRANCH  49  60
ATOM     60  O   LIG    1        9.709  -1.486  -3.427  0.00  0.00    -0.495 OA
ATOM     61  C   LIG    1       10.666  -1.150  -4.434  0.00  0.00    +0.277 C 
ENDBRANCH  49  60
ENDBRANCH  40  46
ENDBRANCH  38  40
ENDBRANCH  37  38
ENDBRANCH  36  37
ENDBRANCH  35  36
ENDBRANCH   1  35
TORSDOF 23
