REMARK  Name = molecules/PUDHBTGHUJUUFI-PURAGXGVSA-N.pdb
REMARK                            x       y       z     vdW  Elec       q    Type
REMARK                         _______ _______ _______ _____ _____    ______ ____
ROOT
ATOM      1  C   LIG    1        2.408   0.689  -0.102  0.00  0.00    +0.169 C 
ATOM      2  C   LIG    1        3.105  -0.536  -0.562  0.00  0.00    +0.235 C 
ATOM      3  N   LIG    1        2.976  -1.831  -0.044  0.00  0.00    -0.302 N 
ATOM      4  H   LIG    1        3.879  -2.275   0.325  0.00  0.00    +0.150 HD
ATOM      5  C   LIG    1        1.798  -2.653   0.049  0.00  0.00    +0.163 C 
ATOM      6  C   LIG    1        1.504  -3.019   1.455  0.00  0.00    +0.234 C 
ATOM      7  O   LIG    1        2.372  -2.632   2.316  0.00  0.00    -0.274 OA
ATOM      8  N   LIG    1        0.389  -3.735   1.923  0.00  0.00    -0.302 N 
ATOM      9  H   LIG    1        0.602  -4.521   2.615  0.00  0.00    +0.150 HD
ATOM     10  C   LIG    1       -1.008  -3.502   1.568  0.00  0.00    +0.163 C 
ATOM     11  C   LIG    1       -1.313  -2.062   1.589  0.00  0.00    +0.234 C 
ATOM     12  O   LIG    1       -0.282  -1.304   1.786  0.00  0.00    -0.274 OA
ATOM     13  N   LIG    1       -2.539  -1.403   1.431  0.00  0.00    -0.302 N 
ATOM     14  H   LIG    1       -2.891  -0.800   2.255  0.00  0.00    +0.150 HD
ATOM     15  C   LIG    1       -3.453  -1.379   0.329  0.00  0.00    +0.159 C 
ATOM     16  C   LIG    1       -3.787  -0.037  -0.214  0.00  0.00    +0.234 C 
ATOM     17  N   LIG    1       -3.299   1.225   0.037  0.00  0.00    -0.302 N 
ATOM     18  C   LIG    1       -3.410   2.184   1.097  0.00  0.00    +0.161 C 
ATOM     19  C   LIG    1       -2.130   2.533   1.760  0.00  0.00    +0.234 C 
ATOM     20  O   LIG    1       -1.458   1.475   2.097  0.00  0.00    -0.274 OA
ATOM     21  N   LIG    1       -1.597   3.783   2.051  0.00  0.00    -0.302 N 
ATOM     22  H   LIG    1       -1.469   3.936   3.136  0.00  0.00    +0.150 HD
ATOM     23  C   LIG    1       -1.173   4.880   1.259  0.00  0.00    +0.169 C 
ATOM     24  C   LIG    1        0.371   4.982   1.274  0.00  0.00    +0.112 C 
ATOM     25  S   LIG    1        1.131   4.243  -0.166  0.00  0.00    -0.091 S 
ATOM     26  S   LIG    1        0.255   2.353  -0.549  0.00  0.00    -0.091 S 
ATOM     27  H   LIG    1       -2.675   1.620  -0.768  0.00  0.00    +0.150 HD
ATOM     28  O   LIG    1       -4.737  -0.127  -1.110  0.00  0.00    -0.274 OA
ATOM     29  O   LIG    1        3.908  -0.340  -1.547  0.00  0.00    -0.274 OA
ATOM     30  C   LIG    1        1.503   1.235  -1.167  0.00  0.00    +0.112 C 
ENDROOT
BRANCH   1  32
ATOM     31  C   LIG    1        4.155   2.412  -0.603  0.00  0.00    +0.231 C 
ATOM     32  N   LIG    1        3.343   1.707   0.285  0.00  0.00    -0.302 N 
ATOM     33  H   LIG    1        3.436   1.955   1.319  0.00  0.00    +0.150 HD
ATOM     34  O   LIG    1        4.184   2.254  -1.856  0.00  0.00    -0.274 OA
BRANCH  31  35
ATOM     35  C   LIG    1        5.114   3.476  -0.104  0.00  0.00    +0.142 C 
BRANCH  35  36
ATOM     36  N   LIG    1        5.033   3.597   1.331  0.00  0.00    -0.320 NA
ATOM     37  H   LIG    1        5.321   2.747   1.841  0.00  0.00    +0.119 HD
ATOM     38  H   LIG    1        4.109   3.969   1.629  0.00  0.00    +0.119 HD
ENDBRANCH  35  36
BRANCH  35  39
ATOM     39  C   LIG    1        6.500   3.164  -0.584  0.00  0.00    +0.063 C 
BRANCH  39  40
ATOM     40  C   LIG    1        7.031   1.872  -0.137  0.00  0.00    -0.045 A 
ATOM     41  C   LIG    1        7.686   1.817   1.078  0.00  0.00    +0.012 A 
ATOM     42  C   LIG    1        8.200   0.613   1.524  0.00  0.00    -0.018 A 
ATOM     43  C   LIG    1        8.855   0.560   2.745  0.00  0.00    +0.008 A 
ATOM     44  C   LIG    1        9.360  -0.647   3.175  0.00  0.00    +0.001 A 
ATOM     45  C   LIG    1        9.250  -1.818   2.455  0.00  0.00    +0.001 A 
ATOM     46  C   LIG    1        8.591  -1.759   1.231  0.00  0.00    +0.008 A 
ATOM     47  C   LIG    1        8.079  -0.549   0.787  0.00  0.00    -0.018 A 
ATOM     48  C   LIG    1        7.417  -0.478  -0.434  0.00  0.00    +0.009 A 
ATOM     49  C   LIG    1        6.904   0.724  -0.879  0.00  0.00    +0.004 A 
ENDBRANCH  39  40
ENDBRANCH  35  39
ENDBRANCH  31  35
ENDBRANCH   1  32
BRANCH  23  50
ATOM     50  C   LIG    1       -1.673   5.025  -0.106  0.00  0.00    +0.235 C 
ATOM     51  N   LIG    1       -1.987   6.358  -0.586  0.00  0.00    -0.300 N 
ATOM     52  H   LIG    1       -1.861   7.191   0.040  0.00  0.00    +0.150 HD
ATOM     53  O   LIG    1       -1.871   4.118  -0.940  0.00  0.00    -0.274 OA
BRANCH  51  54
ATOM     54  C   LIG    1       -2.470   6.497  -1.932  0.00  0.00    +0.187 C 
BRANCH  54  55
ATOM     55  C   LIG    1       -1.711   7.501  -2.703  0.00  0.00    +0.233 C 
ATOM     56  O   LIG    1       -0.766   8.099  -2.130  0.00  0.00    -0.274 OA
ATOM     57  N   LIG    1       -2.065   7.754  -4.042  0.00  0.00    -0.328 N 
ATOM     58  H   LIG    1       -2.801   8.449  -4.254  0.00  0.00    +0.145 HD
ATOM     59  H   LIG    1       -1.612   7.266  -4.843  0.00  0.00    +0.145 HD
ENDBRANCH  54  55
BRANCH  54  60
ATOM     60  C   LIG    1       -3.973   6.777  -1.995  0.00  0.00    +0.141 C 
ATOM     61  C   LIG    1       -4.264   8.000  -1.197  0.00  0.00    +0.040 C 
BRANCH  60  62
ATOM     62  O   LIG    1       -4.305   6.896  -3.334  0.00  0.00    -0.390 OA
ATOM     63  H   LIG    1       -4.080   6.013  -3.757  0.00  0.00    +0.210 HD
ENDBRANCH  60  62
ENDBRANCH  54  60
ENDBRANCH  51  54
ENDBRANCH  23  50
BRANCH  18  64
ATOM     64  C   LIG    1       -4.488   1.911   2.122  0.00  0.00    +0.012 C 
ATOM     65  C   LIG    1       -4.361   3.059   3.142  0.00  0.00    +0.009 C 
ATOM     66  C   LIG    1       -5.832   2.186   1.425  0.00  0.00    +0.009 C 
ENDBRANCH  18  64
BRANCH  10  67
ATOM     67  C   LIG    1       -1.368  -4.220   0.307  0.00  0.00    +0.069 C 
BRANCH  67  68
ATOM     68  C   LIG    1       -1.199  -5.678   0.395  0.00  0.00    -0.020 A 
ATOM     69  C   LIG    1       -1.016  -6.541   1.442  0.00  0.00    +0.087 A 
ATOM     70  N   LIG    1       -0.924  -7.791   0.941  0.00  0.00    -0.360 N 
ATOM     71  H   LIG    1       -0.782  -8.658   1.508  0.00  0.00    +0.165 HD
ATOM     72  C   LIG    1       -1.040  -7.790  -0.386  0.00  0.00    +0.047 A 
ATOM     73  C   LIG    1       -1.022  -8.762  -1.378  0.00  0.00    +0.026 A 
ATOM     74  C   LIG    1       -1.171  -8.451  -2.711  0.00  0.00    +0.002 A 
ATOM     75  C   LIG    1       -1.346  -7.141  -3.097  0.00  0.00    +0.001 A 
ATOM     76  C   LIG    1       -1.362  -6.188  -2.096  0.00  0.00    +0.010 A 
ATOM     77  C   LIG    1       -1.213  -6.481  -0.752  0.00  0.00    +0.003 A 
ENDBRANCH  67  68
ENDBRANCH  10  67
BRANCH  15  78
ATOM     78  C   LIG    1       -4.734  -2.140   0.559  0.00  0.00    +0.032 C 
BRANCH  78  79
ATOM     79  C   LIG    1       -5.568  -1.681   1.699  0.00  0.00    +0.003 C 
BRANCH  79  80
ATOM     80  C   LIG    1       -6.794  -2.614   1.714  0.00  0.00    +0.015 C 
BRANCH  80  81
ATOM     81  C   LIG    1       -7.740  -2.266   2.823  0.00  0.00    +0.077 C 
BRANCH  81  82
ATOM     82  N   LIG    1       -8.257  -0.915   2.724  0.00  0.00    -0.330 NA
ATOM     83  H   LIG    1       -7.823  -0.329   3.457  0.00  0.00    +0.118 HD
ATOM     84  H   LIG    1       -8.147  -0.541   1.755  0.00  0.00    +0.118 HD
ENDBRANCH  81  82
ENDBRANCH  80  81
ENDBRANCH  79  80
ENDBRANCH  78  79
ENDBRANCH  15  78
BRANCH   5  85
ATOM     85  C   LIG    1        2.122  -3.976  -0.665  0.00  0.00    +0.067 C 
BRANCH  85  86
ATOM     86  C   LIG    1        2.478  -3.767  -2.085  0.00  0.00    -0.045 A 
ATOM     87  C   LIG    1        3.783  -3.572  -2.507  0.00  0.00    +0.007 A 
ATOM     88  C   LIG    1        4.123  -3.374  -3.825  0.00  0.00    +0.045 A 
ATOM     89  C   LIG    1        3.137  -3.367  -4.766  0.00  0.00    +0.117 A 
ATOM     90  C   LIG    1        1.823  -3.555  -4.394  0.00  0.00    +0.045 A 
ATOM     91  C   LIG    1        1.498  -3.755  -3.051  0.00  0.00    +0.007 A 
BRANCH  89  92
ATOM     92  O   LIG    1        3.426  -3.171  -6.110  0.00  0.00    -0.507 OA
ATOM     93  H   LIG    1        3.618  -4.027  -6.645  0.00  0.00    +0.292 HD
ENDBRANCH  89  92
ENDBRANCH  85  86
ENDBRANCH   5  85
TORSDOF 21
