REMARK  Name = molecules/PUUSSSIBPPTKTP-UHFFFAOYSA-N.pdb
REMARK                            x       y       z     vdW  Elec       q    Type
REMARK                         _______ _______ _______ _____ _____    ______ ____
ROOT
ATOM      1  C   LIG    1       -0.999  -0.421  -0.463  0.00  0.00    +0.267 C 
ENDROOT
BRANCH   1   2
ATOM      2  P   LIG    1       -2.402   0.726  -0.494  0.00  0.00    +0.371 P 
ATOM      3  O   LIG    1       -3.129   0.541  -1.808  0.00  0.00    -0.255 OA
BRANCH   2   4
ATOM      4  O   LIG    1       -3.520   0.344   0.738  0.00  0.00    -0.322 OA
ATOM      5  H   LIG    1       -4.104  -0.409   0.462  0.00  0.00    +0.220 HD
ENDBRANCH   2   4
BRANCH   2   6
ATOM      6  O   LIG    1       -1.874   2.313  -0.371  0.00  0.00    -0.322 OA
ATOM      7  H   LIG    1       -2.112   2.690   0.510  0.00  0.00    +0.220 HD
ENDBRANCH   2   6
ENDBRANCH   1   2
BRANCH   1   8
ATOM      8  P   LIG    1       -1.635  -2.017  -1.115  0.00  0.00    +0.371 P 
ATOM      9  O   LIG    1       -1.303  -2.142  -2.583  0.00  0.00    -0.255 OA
BRANCH   8  10
ATOM     10  O   LIG    1       -0.955  -3.278  -0.220  0.00  0.00    -0.322 OA
ATOM     11  H   LIG    1       -1.377  -3.224   0.691  0.00  0.00    +0.220 HD
ENDBRANCH   8  10
BRANCH   8  12
ATOM     12  O   LIG    1       -3.318  -2.091  -0.969  0.00  0.00    -0.322 OA
ATOM     13  H   LIG    1       -3.666  -2.657  -1.703  0.00  0.00    +0.220 HD
ENDBRANCH   8  12
ENDBRANCH   1   8
BRANCH   1  14
ATOM     14  O   LIG    1       -0.042   0.055  -1.327  0.00  0.00    -0.367 OA
ATOM     15  H   LIG    1       -0.325   0.846  -1.838  0.00  0.00    +0.212 HD
ENDBRANCH   1  14
BRANCH   1  16
ATOM     16  C   LIG    1       -0.537  -0.662   0.930  0.00  0.00    +0.060 C 
BRANCH  16  17
ATOM     17  C   LIG    1        0.020   0.500   1.665  0.00  0.00    +0.004 C 
BRANCH  17  18
ATOM     18  C   LIG    1        1.236   1.118   1.017  0.00  0.00    +0.001 C 
BRANCH  18  19
ATOM     19  C   LIG    1        2.372   0.129   0.890  0.00  0.00    +0.015 C 
BRANCH  19  20
ATOM     20  C   LIG    1        3.533   0.824   0.240  0.00  0.00    +0.077 C 
BRANCH  20  21
ATOM     21  N   LIG    1        3.211   1.326  -1.077  0.00  0.00    -0.330 NA
ATOM     22  H   LIG    1        4.015   1.692  -1.591  0.00  0.00    +0.118 HD
ATOM     23  H   LIG    1        2.624   0.656  -1.624  0.00  0.00    +0.118 HD
ENDBRANCH  20  21
ENDBRANCH  19  20
ENDBRANCH  18  19
ENDBRANCH  17  18
ENDBRANCH  16  17
ENDBRANCH   1  16
TORSDOF 13
