REMARK  Name = molecules/PVBQYTCFVWZSJK-UHFFFAOYSA-N.pdb
REMARK                            x       y       z     vdW  Elec       q    Type
REMARK                         _______ _______ _______ _____ _____    ______ ____
ROOT
ATOM      1  N   LIG    1        0.067  -0.499  -0.621  0.00  0.00    -0.363 NA
ATOM      2  H   LIG    1        0.089  -0.567  -1.651  0.00  0.00    +0.102 HD
ENDROOT
BRANCH   1   4
ATOM      3  C   LIG    1       -1.304   1.012   0.529  0.00  0.00    -0.067 C 
ATOM      4  N   LIG    1       -1.156  -0.287  -0.062  0.00  0.00    +0.382 N 
ATOM      5  C   LIG    1       -1.340  -1.345   0.948  0.00  0.00    -0.067 C 
ATOM      6  C   LIG    1       -2.247  -0.430  -1.015  0.00  0.00    -0.067 C 
ENDBRANCH   1   4
BRANCH   1   7
ATOM      7  C   LIG    1        1.095   0.303  -0.050  0.00  0.00    +0.075 C 
BRANCH   7   8
ATOM      8  C   LIG    1        2.430  -0.009  -0.749  0.00  0.00    +0.138 C 
BRANCH   8   9
ATOM      9  C   LIG    1        3.465   0.855  -0.135  0.00  0.00    +0.357 C 
ATOM     10  O   LIG    1        3.099   2.173   0.122  0.00  0.00    -0.246 OA
ATOM     11  O   LIG    1        4.583   0.370   0.115  0.00  0.00    -0.246 OA
ENDBRANCH   8   9
ENDBRANCH   7   8
ENDBRANCH   1   7
TORSDOF 4
