REMARK  Name = molecules/PVHUJELLJLJGLN-INIZCTEOSA-N.pdb
REMARK                            x       y       z     vdW  Elec       q    Type
REMARK                         _______ _______ _______ _____ _____    ______ ____
ROOT
ATOM      1  C   LIG    1       -1.239  -0.303  -0.196  0.00  0.00    +0.065 C 
ATOM      2  C   LIG    1       -0.336   0.658   0.461  0.00  0.00    +0.096 C 
ATOM      3  C   LIG    1        0.129   1.729  -0.439  0.00  0.00    +0.065 C 
ATOM      4  C   LIG    1       -0.213   1.840  -1.709  0.00  0.00    +0.016 C 
ATOM      5  N   LIG    1       -1.090   0.888  -2.309  0.00  0.00    -0.321 N 
ATOM      6  H   LIG    1       -1.366   0.967  -3.311  0.00  0.00    +0.152 HD
ATOM      7  C   LIG    1        0.322   2.968  -2.521  0.00  0.00    +0.061 C 
ATOM      8  C   LIG    1       -1.554  -0.158  -1.462  0.00  0.00    +0.016 C 
ATOM      9  C   LIG    1       -2.486  -1.187  -2.058  0.00  0.00    +0.061 C 
ENDROOT
BRANCH   2  10
ATOM     10  C   LIG    1        0.901  -0.060   0.941  0.00  0.00    -0.033 A 
ATOM     11  C   LIG    1        1.171  -0.030   2.285  0.00  0.00    +0.005 A 
ATOM     12  C   LIG    1        2.296  -0.679   2.746  0.00  0.00    +0.003 A 
ATOM     13  C   LIG    1        3.120  -1.340   1.862  0.00  0.00    +0.033 A 
ATOM     14  C   LIG    1        2.818  -1.352   0.497  0.00  0.00    +0.126 A 
ATOM     15  C   LIG    1        1.702  -0.708   0.037  0.00  0.00    +0.037 A 
BRANCH  14  16
ATOM     16  N   LIG    1        3.711  -2.054  -0.369  0.00  0.00    +0.056 N 
ATOM     17  O   LIG    1        4.817  -2.689   0.103  0.00  0.00    -0.126 OA
ATOM     18  O   LIG    1        3.493  -2.101  -1.603  0.00  0.00    -0.126 OA
ENDBRANCH  14  16
ENDBRANCH   2  10
BRANCH   1  19
ATOM     19  C   LIG    1       -1.782  -1.436   0.602  0.00  0.00    +0.338 C 
ATOM     20  O   LIG    1       -1.419  -1.486   1.804  0.00  0.00    -0.245 OA
BRANCH  19  21
ATOM     21  O   LIG    1       -2.616  -2.395   0.147  0.00  0.00    -0.462 OA
BRANCH  21  22
ATOM     22  C   LIG    1       -3.132  -3.465   0.890  0.00  0.00    +0.229 C 
ATOM     23  C   LIG    1       -3.949  -3.036   2.072  0.00  0.00    +0.048 C 
ENDBRANCH  21  22
ENDBRANCH  19  21
ENDBRANCH   1  19
BRANCH   3  24
ATOM     24  C   LIG    1        1.038   2.725   0.160  0.00  0.00    +0.337 C 
ATOM     25  O   LIG    1        1.356   2.603   1.384  0.00  0.00    -0.245 OA
BRANCH  24  26
ATOM     26  O   LIG    1        1.579   3.792  -0.501  0.00  0.00    -0.465 OA
ATOM     27  C   LIG    1        2.451   4.707   0.161  0.00  0.00    +0.280 C 
ENDBRANCH  24  26
ENDBRANCH   3  24
TORSDOF 7
