REMARK  Name = molecules/PVNIIMVLHYAWGP-UHFFFAOYSA-N.pdb
REMARK                            x       y       z     vdW  Elec       q    Type
REMARK                         _______ _______ _______ _____ _____    ______ ____
ROOT
ATOM      1  C   LIG    1        0.488   0.265   0.183  0.00  0.00    +0.077 A 
ATOM      2  C   LIG    1       -0.317   1.358   0.437  0.00  0.00    +0.125 A 
ATOM      3  N   LIG    1       -1.657   1.295   0.299  0.00  0.00    -0.262 NA
ATOM      4  C   LIG    1       -2.292   0.175  -0.092  0.00  0.00    +0.111 A 
ATOM      5  C   LIG    1       -1.538  -0.939  -0.357  0.00  0.00    +0.020 A 
ATOM      6  C   LIG    1       -0.167  -0.888  -0.219  0.00  0.00    +0.018 A 
ENDROOT
BRANCH   1   7
ATOM      7  C   LIG    1        1.934   0.321   0.330  0.00  0.00    +0.338 C 
ATOM      8  O   LIG    1        2.488   1.382   0.695  0.00  0.00    -0.245 OA
BRANCH   7   9
ATOM      9  O   LIG    1        2.727  -0.780   0.072  0.00  0.00    -0.477 OA
ATOM     10  H   LIG    1        3.142  -0.999  -0.809  0.00  0.00    +0.295 HD
ENDBRANCH   7   9
ENDBRANCH   1   7
TORSDOF 2
