REMARK  Name = molecules/PVOOBRUZWPQOER-NSHDSACASA-N.pdb
REMARK                            x       y       z     vdW  Elec       q    Type
REMARK                         _______ _______ _______ _____ _____    ______ ____
ROOT
ATOM      1  C   LIG    1        0.699   0.478   0.030  0.00  0.00    +0.158 C 
ENDROOT
BRANCH   1   2
ATOM      2  C   LIG    1        2.200   0.245   0.092  0.00  0.00    -0.018 A 
ATOM      3  C   LIG    1        2.765  -0.632   0.983  0.00  0.00    +0.006 A 
ATOM      4  C   LIG    1        4.152  -0.826   1.016  0.00  0.00    +0.000 A 
ATOM      5  C   LIG    1        4.952  -0.117   0.130  0.00  0.00    +0.000 A 
ATOM      6  C   LIG    1        4.417   0.770  -0.776  0.00  0.00    +0.000 A 
ATOM      7  C   LIG    1        3.042   0.927  -0.769  0.00  0.00    +0.006 A 
ENDBRANCH   1   2
BRANCH   1   8
ATOM      8  O   LIG    1        0.525   1.406  -0.998  0.00  0.00    -0.386 OA
ATOM      9  H   LIG    1        0.536   2.319  -0.558  0.00  0.00    +0.210 HD
ENDBRANCH   1   8
BRANCH   1  10
ATOM     10  C   LIG    1        0.009  -0.784  -0.425  0.00  0.00    +0.117 C 
BRANCH  10  11
ATOM     11  N   LIG    1       -1.322  -0.649  -0.789  0.00  0.00    -0.306 NA
ATOM     12  H   LIG    1       -1.589  -1.285  -1.551  0.00  0.00    +0.123 HD
BRANCH  11  13
ATOM     13  C   LIG    1       -2.386  -0.359   0.049  0.00  0.00    +0.037 C 
ATOM     14  C   LIG    1       -2.185   0.614   1.173  0.00  0.00    +0.030 C 
ATOM     15  C   LIG    1       -3.106  -1.576   0.607  0.00  0.00    +0.030 C 
BRANCH  13  16
ATOM     16  C   LIG    1       -3.461   0.333  -0.846  0.00  0.00    +0.177 C 
BRANCH  16  17
ATOM     17  O   LIG    1       -2.860   1.477  -1.379  0.00  0.00    -0.393 OA
ATOM     18  H   LIG    1       -3.309   2.313  -1.104  0.00  0.00    +0.209 HD
ENDBRANCH  16  17
ENDBRANCH  13  16
ENDBRANCH  11  13
ENDBRANCH  10  11
ENDBRANCH   1  10
TORSDOF 7
