REMARK  Name = molecules/PWAUCHMQEXVFJR-PMAPCBKXSA-N.pdb
REMARK                            x       y       z     vdW  Elec       q    Type
REMARK                         _______ _______ _______ _____ _____    ______ ____
ROOT
ATOM      1  N   LIG    1       -0.450  -2.029  -1.736  0.00  0.00    -0.300 N 
ATOM      2  H   LIG    1       -0.232  -2.710  -1.006  0.00  0.00    +0.150 HD
ATOM      3  C   LIG    1       -1.590  -1.191  -1.668  0.00  0.00    +0.239 C 
ATOM      4  O   LIG    1       -1.641  -0.394  -2.741  0.00  0.00    -0.273 OA
ENDROOT
BRANCH   1  10
ATOM      5  CA  LIG    1        3.810  -1.976  -2.480  0.00  0.00    +0.123 C 
ATOM      6  C   LIG    1        4.158  -1.355  -1.329  0.00  0.00    -0.021 C 
ATOM      7  C   LIG    1        3.076  -0.967  -0.330  0.00  0.00    +0.104 C 
ATOM      8  S   LIG    1        1.793  -0.087  -1.243  0.00  0.00    -0.131 S 
ATOM      9  C   LIG    1        1.562  -0.944  -2.778  0.00  0.00    +0.169 C 
ATOM     10  CA  LIG    1        0.421  -1.935  -2.881  0.00  0.00    +0.191 C 
ATOM     11  C   LIG    1        1.360  -2.979  -3.194  0.00  0.00    +0.244 C 
ATOM     12  O   LIG    1        1.272  -4.167  -3.633  0.00  0.00    -0.273 OA
ATOM     13  N   LIG    1        2.420  -2.114  -2.809  0.00  0.00    -0.249 N 
BRANCH   5  14
ATOM     14  C   LIG    1        4.774  -2.466  -3.459  0.00  0.00    +0.351 C 
ATOM     15  O   LIG    1        4.387  -3.055  -4.501  0.00  0.00    -0.244 OA
BRANCH  14  16
ATOM     16  OXT LIG    1        6.139  -2.349  -3.343  0.00  0.00    -0.476 OA
ATOM     17  HXT LIG    1        6.615  -1.723  -3.981  0.00  0.00    +0.295 HD
ENDBRANCH  14  16
ENDBRANCH   5  14
BRANCH   6  18
ATOM     18  C   LIG    1        5.534  -1.087  -0.968  0.00  0.00    +0.111 C 
BRANCH  18  19
ATOM     19  S   LIG    1        6.003  -1.914   0.568  0.00  0.00    -0.080 S 
BRANCH  19  20
ATOM     20  C   LIG    1        5.140  -1.407   1.999  0.00  0.00    +0.209 A 
ATOM     21  N   LIG    1        5.420  -0.389   2.803  0.00  0.00    -0.223 N 
ATOM     22  N   LIG    1        4.540  -0.385   3.767  0.00  0.00    -0.043 NA
ATOM     23  N   LIG    1        3.710  -1.375   3.586  0.00  0.00    -0.022 NA
ATOM     24  C   LIG    1        6.508   0.569   2.613  0.00  0.00    +0.177 C 
ATOM     25  N   LIG    1        4.045  -2.035   2.502  0.00  0.00    -0.102 NA
ENDBRANCH  19  20
ENDBRANCH  18  19
ENDBRANCH   6  18
ENDBRANCH   1  10
BRANCH   3  26
ATOM     26  CA  LIG    1       -2.648  -0.984  -0.772  0.00  0.00    +0.190 C 
BRANCH  26  27
ATOM     27  C   LIG    1       -2.617  -1.282   0.649  0.00  0.00    -0.018 A 
ATOM     28  C   LIG    1       -1.507  -1.556   1.379  0.00  0.00    +0.009 A 
ATOM     29  C   LIG    1       -1.624  -1.882   2.739  0.00  0.00    +0.046 A 
ATOM     30  C   LIG    1       -2.836  -1.933   3.385  0.00  0.00    +0.117 A 
ATOM     31  C   LIG    1       -3.952  -1.652   2.644  0.00  0.00    +0.046 A 
ATOM     32  C   LIG    1       -3.873  -1.335   1.316  0.00  0.00    +0.009 A 
BRANCH  30  33
ATOM     33  O   LIG    1       -2.930  -2.267   4.750  0.00  0.00    -0.507 OA
ATOM     34  H   LIG    1       -2.029  -2.505   5.229  0.00  0.00    +0.292 HD
ENDBRANCH  30  33
ENDBRANCH  26  27
BRANCH  26  35
ATOM     35  N   LIG    1       -3.237   0.358  -1.026  0.00  0.00    -0.296 N 
ATOM     36  C   LIG    1       -3.353   1.295   0.019  0.00  0.00    +0.250 C 
ATOM     37  O   LIG    1       -2.963   1.072   1.172  0.00  0.00    -0.270 OA
ATOM     38  H   LIG    1       -3.561   0.580  -1.998  0.00  0.00    +0.150 HD
BRANCH  36  39
ATOM     39  C   LIG    1       -3.959   2.611  -0.199  0.00  0.00    +0.096 A 
ATOM     40  C   LIG    1       -4.106   3.556   0.814  0.00  0.00    +0.132 A 
ATOM     41  C   LIG    1       -4.710   4.777   0.534  0.00  0.00    +0.069 A 
ATOM     42  C   LIG    1       -5.181   5.090  -0.763  0.00  0.00    +0.042 A 
ATOM     43  C   LIG    1       -5.811   6.413  -1.018  0.00  0.00    +0.066 C 
ATOM     44  N   LIG    1       -5.017   4.161  -1.681  0.00  0.00    -0.259 NA
ATOM     45  C   LIG    1       -4.438   2.975  -1.430  0.00  0.00    +0.127 A 
BRANCH  40  46
ATOM     46  O   LIG    1       -3.678   3.332   2.097  0.00  0.00    -0.506 OA
ATOM     47  H   LIG    1       -3.257   2.646   2.599  0.00  0.00    +0.292 HD
ENDBRANCH  40  46
ENDBRANCH  36  39
ENDBRANCH  26  35
ENDBRANCH   3  26
TORSDOF 12
