REMARK  Name = molecules/PWNMXPDKBYZCOO-NSHDSACASA-N.pdb
REMARK                            x       y       z     vdW  Elec       q    Type
REMARK                         _______ _______ _______ _____ _____    ______ ____
ROOT
ATOM      1  C   LIG    1       -4.810   2.482  -0.505  0.00  0.00    +0.043 C 
ATOM      2  C   LIG    1       -4.998   1.268  -1.385  0.00  0.00    +0.149 C 
ATOM      3  N   LIG    1       -4.389   0.068  -0.794  0.00  0.00    -0.322 N 
ATOM      4  C   LIG    1       -3.214  -0.484  -0.410  0.00  0.00    +0.056 A 
ATOM      5  C   LIG    1       -3.148  -1.747   0.138  0.00  0.00    +0.049 A 
ATOM      6  C   LIG    1       -1.923  -2.263   0.513  0.00  0.00    +0.054 A 
ATOM      7  C   LIG    1       -0.775  -1.524   0.340  0.00  0.00    +0.145 A 
ATOM      8  F   LIG    1        0.437  -2.039   0.714  0.00  0.00    -0.204 F 
ATOM      9  C   LIG    1       -0.791  -0.253  -0.206  0.00  0.00    +0.067 A 
ATOM     10  C   LIG    1       -4.285  -2.475   0.307  0.00  0.00    +0.205 A 
ATOM     11  O   LIG    1       -4.204  -3.626   0.809  0.00  0.00    -0.286 OA
ATOM     12  C   LIG    1       -5.493  -1.943  -0.072  0.00  0.00    +0.136 A 
ATOM     13  C   LIG    1       -2.030   0.232  -0.568  0.00  0.00    +0.052 A 
ATOM     14  C   LIG    1       -5.497  -0.668  -0.619  0.00  0.00    +0.097 A 
ATOM     15  S   LIG    1       -6.635   0.559  -1.286  0.00  0.00    -0.082 S 
ENDROOT
BRANCH   9  16
ATOM     16  N   LIG    1        0.407   0.489  -0.374  0.00  0.00    -0.325 N 
ATOM     17  C   LIG    1        0.636   1.770   0.263  0.00  0.00    +0.120 C 
ATOM     18  C   LIG    1        1.985   1.758   0.938  0.00  0.00    +0.104 C 
ATOM     19  N   LIG    1        3.045   1.329   0.092  0.00  0.00    -0.292 NA
ATOM     20  C   LIG    1        2.672   0.855  -1.194  0.00  0.00    +0.104 C 
ATOM     21  C   LIG    1        1.456  -0.032  -1.209  0.00  0.00    +0.120 C 
BRANCH  19  22
ATOM     22  C   LIG    1        4.099   0.619   0.741  0.00  0.00    +0.162 C 
BRANCH  22  23
ATOM     23  C   LIG    1        5.364   0.661  -0.064  0.00  0.00    +0.164 A 
ATOM     24  C   LIG    1        6.562   0.074   0.283  0.00  0.00    +0.148 A 
ATOM     25  C   LIG    1        6.808  -0.708   1.525  0.00  0.00    +0.090 C 
ATOM     26  O   LIG    1        7.445   0.326  -0.672  0.00  0.00    -0.396 OA
ATOM     27  C   LIG    1        6.832   1.046  -1.593  0.00  0.00    +0.521 A 
ATOM     28  O   LIG    1        7.358   1.476  -2.659  0.00  0.00    -0.202 OA
ATOM     29  O   LIG    1        5.586   1.240  -1.218  0.00  0.00    -0.394 OA
ENDBRANCH  22  23
ENDBRANCH  19  22
ENDBRANCH   9  16
BRANCH  12  30
ATOM     30  C   LIG    1       -6.694  -2.740   0.118  0.00  0.00    +0.343 C 
ATOM     31  O   LIG    1       -7.338  -2.661   1.189  0.00  0.00    -0.245 OA
BRANCH  30  32
ATOM     32  O   LIG    1       -7.149  -3.594  -0.870  0.00  0.00    -0.477 OA
ATOM     33  H   LIG    1       -6.642  -4.464  -1.080  0.00  0.00    +0.295 HD
ENDBRANCH  30  32
ENDBRANCH  12  30
TORSDOF 5
