REMARK  Name = molecules/PWRPUAKXMQAFCJ-UHFFFAOYSA-N.pdb
REMARK                            x       y       z     vdW  Elec       q    Type
REMARK                         _______ _______ _______ _____ _____    ______ ____
ROOT
ATOM      1  C   LIG    1       -0.037  -0.068  -0.184  0.00  0.00    +0.321 C 
ATOM      2  N   LIG    1       -0.444   1.151   0.079  0.00  0.00    -0.041 NA
ATOM      3  C   LIG    1       -1.787   1.638   0.211  0.00  0.00    +0.180 A 
ATOM      4  C   LIG    1       -2.869   0.886   0.601  0.00  0.00    +0.008 A 
ATOM      5  C   LIG    1       -3.012  -0.548   0.984  0.00  0.00    +0.075 C 
ATOM      6  C   LIG    1       -2.177  -1.419   0.104  0.00  0.00    -0.028 A 
ATOM      7  C   LIG    1       -2.851  -2.579  -0.207  0.00  0.00    +0.005 A 
ATOM      8  C   LIG    1       -2.257  -3.523  -1.012  0.00  0.00    +0.000 A 
ATOM      9  C   LIG    1       -0.989  -3.314  -1.508  0.00  0.00    +0.001 A 
ATOM     10  C   LIG    1       -0.291  -2.176  -1.219  0.00  0.00    +0.016 A 
ATOM     11  C   LIG    1       -4.103   1.521   0.677  0.00  0.00    +0.008 A 
ATOM     12  C   LIG    1       -4.231   2.866   0.368  0.00  0.00    +0.001 A 
ATOM     13  C   LIG    1       -3.138   3.609  -0.022  0.00  0.00    +0.004 A 
ATOM     14  C   LIG    1       -1.902   2.989  -0.102  0.00  0.00    +0.056 A 
ATOM     15  C   LIG    1       -0.899  -1.228  -0.407  0.00  0.00    +0.069 A 
ENDROOT
BRANCH   1  20
ATOM     16  C   LIG    1        5.096   0.929   0.721  0.00  0.00    +0.105 C 
ATOM     17  N   LIG    1        4.026   0.152   0.076  0.00  0.00    -0.298 NA
ATOM     18  C   LIG    1        3.359  -0.579   1.096  0.00  0.00    +0.128 C 
ATOM     19  C   LIG    1        2.008  -1.113   0.704  0.00  0.00    +0.241 C 
ATOM     20  N   LIG    1        1.336  -0.320  -0.268  0.00  0.00    -0.218 N 
ATOM     21  C   LIG    1        2.105   0.234  -1.357  0.00  0.00    +0.241 C 
ATOM     22  C   LIG    1        3.218   1.051  -0.684  0.00  0.00    +0.128 C 
ENDBRANCH   1  20
TORSDOF 1
