REMARK  Name = molecules/PWTCIBWRMQFJBC-ZEMKZVSASA-N.pdb
REMARK                            x       y       z     vdW  Elec       q    Type
REMARK                         _______ _______ _______ _____ _____    ______ ____
ROOT
ATOM      1  C   LIG    1       -1.162  -0.383  -0.174  0.00  0.00    +0.083 C 
ATOM      2  C   LIG    1        0.009  -1.228   0.104  0.00  0.00    +0.015 C 
ATOM      3  C   LIG    1       -0.492  -2.282   1.100  0.00  0.00    -0.006 C 
ATOM      4  C   LIG    1       -1.897  -1.778   1.485  0.00  0.00    +0.009 C 
ATOM      5  C   LIG    1       -0.935  -3.461   0.261  0.00  0.00    +0.004 C 
ATOM      6  C   LIG    1       -1.950  -2.737  -0.644  0.00  0.00    +0.005 C 
ATOM      7  C   LIG    1       -2.286  -1.441   0.030  0.00  0.00    +0.008 C 
ENDROOT
BRANCH   1   8
ATOM      8  N   LIG    1       -1.298   0.266  -1.410  0.00  0.00    -0.186 NA
ATOM      9  H   LIG    1       -1.711  -0.241  -2.194  0.00  0.00    +0.148 HD
BRANCH   8  10
ATOM     10  S   LIG    1       -1.907   1.857  -1.206  0.00  0.00    +0.059 S 
ATOM     11  O   LIG    1       -1.024   2.663  -0.303  0.00  0.00    -0.153 OA
ATOM     12  O   LIG    1       -2.027   2.545  -2.547  0.00  0.00    -0.153 OA
BRANCH  10  13
ATOM     13  C   LIG    1       -3.495   1.868  -0.484  0.00  0.00    +0.105 A 
ATOM     14  C   LIG    1       -3.616   1.969   0.884  0.00  0.00    +0.028 A 
ATOM     15  C   LIG    1       -4.843   1.980   1.517  0.00  0.00    +0.002 A 
ATOM     16  C   LIG    1       -6.000   1.888   0.781  0.00  0.00    +0.000 A 
ATOM     17  C   LIG    1       -5.903   1.786  -0.586  0.00  0.00    +0.002 A 
ATOM     18  C   LIG    1       -4.673   1.777  -1.192  0.00  0.00    +0.028 A 
ENDBRANCH  10  13
ENDBRANCH   8  10
ENDBRANCH   1   8
BRANCH   2  19
ATOM     19  C   LIG    1        1.225  -0.601   0.692  0.00  0.00    +0.032 C 
BRANCH  19  20
ATOM     20  C   LIG    1        1.851   0.448  -0.142  0.00  0.00    -0.031 C 
ATOM     21  C   LIG    1        3.102   0.390  -0.615  0.00  0.00    -0.031 C 
BRANCH  21  22
ATOM     22  C   LIG    1        4.022  -0.718  -0.373  0.00  0.00    +0.027 C 
BRANCH  22  23
ATOM     23  C   LIG    1        5.271  -0.466   0.389  0.00  0.00    +0.015 C 
BRANCH  23  24
ATOM     24  C   LIG    1        6.219   0.547  -0.097  0.00  0.00    +0.121 C 
BRANCH  24  25
ATOM     25  C   LIG    1        5.772   1.944  -0.058  0.00  0.00    +0.305 C 
ATOM     26  O   LIG    1        4.780   2.395   0.529  0.00  0.00    -0.251 OA
BRANCH  25  27
ATOM     27  O   LIG    1        6.542   2.896  -0.758  0.00  0.00    -0.481 OA
ATOM     28  H   LIG    1        6.866   3.679  -0.193  0.00  0.00    +0.295 HD
ENDBRANCH  25  27
ENDBRANCH  24  25
ENDBRANCH  23  24
ENDBRANCH  22  23
ENDBRANCH  21  22
ENDBRANCH  19  20
ENDBRANCH   2  19
TORSDOF 10
