REMARK  Name = molecules/PWWVAXIEGOYWEE-CYBMUJFWSA-N.pdb
REMARK                            x       y       z     vdW  Elec       q    Type
REMARK                         _______ _______ _______ _____ _____    ______ ____
ROOT
ATOM      1  N   LIG    1       -0.724  -0.022   0.542  0.00  0.00    -0.297 N 
ATOM      2  C   LIG    1       -1.311   1.246   0.225  0.00  0.00    +0.048 A 
ATOM      3  C   LIG    1       -0.752   2.420   0.744  0.00  0.00    +0.024 A 
ATOM      4  C   LIG    1       -1.284   3.665   0.486  0.00  0.00    +0.002 A 
ATOM      5  C   LIG    1       -2.407   3.790  -0.307  0.00  0.00    +0.001 A 
ATOM      6  C   LIG    1       -2.984   2.661  -0.833  0.00  0.00    +0.017 A 
ATOM      7  C   LIG    1       -2.425   1.434  -0.555  0.00  0.00    +0.034 A 
ATOM      8  S   LIG    1       -3.234   0.010  -1.265  0.00  0.00    -0.086 S 
ATOM      9  C   LIG    1       -2.345  -1.417  -0.720  0.00  0.00    +0.034 C 
ATOM     10  C   LIG    1       -2.817  -2.630  -1.143  0.00  0.00    +0.013 C 
ATOM     11  C   LIG    1       -2.203  -3.800  -0.790  0.00  0.00    -0.017 C 
ATOM     12  C   LIG    1       -1.091  -3.693   0.007  0.00  0.00    +0.047 C 
ATOM     13  C   LIG    1       -0.619  -2.470   0.430  0.00  0.00    +0.006 C 
ATOM     14  C   LIG    1       -1.239  -1.280   0.076  0.00  0.00    +0.045 C 
ENDROOT
BRANCH   1  15
ATOM     15  C   LIG    1        0.447  -0.010   1.347  0.00  0.00    +0.129 C 
BRANCH  15  16
ATOM     16  C   LIG    1        1.748   0.332   0.732  0.00  0.00    +0.071 C 
ATOM     17  C   LIG    1        2.778   0.313   1.891  0.00  0.00    +0.026 C 
BRANCH  16  18
ATOM     18  N   LIG    1        2.233  -0.508  -0.319  0.00  0.00    -0.304 NA
ATOM     19  C   LIG    1        3.583  -0.078  -0.679  0.00  0.00    +0.104 C 
ATOM     20  C   LIG    1        1.450  -0.517  -1.512  0.00  0.00    +0.104 C 
ENDBRANCH  16  18
ENDBRANCH  15  16
ENDBRANCH   1  15
TORSDOF 3
