REMARK  Name = molecules/PWZUUYSISTUNDW-VAFBSOEGSA-N.pdb
REMARK                            x       y       z     vdW  Elec       q    Type
REMARK                         _______ _______ _______ _____ _____    ______ ____
ROOT
ATOM      1  C   LIG    1        3.336   1.924   0.625  0.00  0.00    +0.015 C 
ATOM      2  C   LIG    1        3.809   0.778  -0.234  0.00  0.00    +0.011 C 
ATOM      3  C   LIG    1        3.321  -0.573   0.315  0.00  0.00    +0.002 C 
ATOM      4  C   LIG    1        4.043  -0.613   1.614  0.00  0.00    +0.008 C 
ATOM      5  C   LIG    1        5.399  -0.006   1.290  0.00  0.00    +0.049 C 
ATOM      6  C   LIG    1        1.849  -0.660   0.368  0.00  0.00    +0.000 C 
ATOM      7  C   LIG    1        1.457  -2.101   0.615  0.00  0.00    +0.009 C 
ATOM      8  C   LIG    1        0.181  -2.524  -0.025  0.00  0.00    +0.036 C 
ATOM      9  C   LIG    1       -0.781  -1.411  -0.267  0.00  0.00    -0.040 A 
ATOM     10  C   LIG    1       -2.124  -1.520  -0.050  0.00  0.00    +0.049 A 
ATOM     11  C   LIG    1       -2.990  -0.444  -0.294  0.00  0.00    +0.121 A 
ATOM     12  C   LIG    1       -2.447   0.734  -0.761  0.00  0.00    +0.046 A 
ATOM     13  C   LIG    1       -1.068   0.833  -0.980  0.00  0.00    +0.008 A 
ATOM     14  C   LIG    1       -0.235  -0.235  -0.734  0.00  0.00    -0.041 A 
ATOM     15  C   LIG    1        1.230  -0.232  -0.931  0.00  0.00    +0.023 C 
ATOM     16  C   LIG    1        1.757   1.036  -1.491  0.00  0.00    +0.009 C 
ATOM     17  C   LIG    1        5.284   0.563  -0.124  0.00  0.00    +0.132 C 
ATOM     18  C   LIG    1        3.278   0.885  -1.618  0.00  0.00    +0.011 C 
ENDROOT
BRANCH  17  19
ATOM     19  O   LIG    1        6.027   1.724  -0.268  0.00  0.00    -0.376 OA
ATOM     20  H   LIG    1        6.442   2.029   0.581  0.00  0.00    +0.211 HD
ENDBRANCH  17  19
BRANCH  17  21
ATOM     21  C   LIG    1        5.673  -0.482  -1.056  0.00  0.00    -0.070 C 
ATOM     22  C   LIG    1        6.007  -1.330  -1.827  0.00  0.00    +0.007 C 
ENDBRANCH  17  21
BRANCH  11  23
ATOM     23  O   LIG    1       -4.324  -0.640  -0.048  0.00  0.00    -0.489 OA
BRANCH  23  24
ATOM     24  C   LIG    1       -5.363   0.260  -0.210  0.00  0.00    +0.173 C 
ATOM     25  C   LIG    1       -6.113   0.532   1.077  0.00  0.00    +0.044 C 
ATOM     26  C   LIG    1       -7.381   1.191   0.564  0.00  0.00    +0.004 C 
ATOM     27  C   LIG    1       -7.703   0.504  -0.741  0.00  0.00    +0.004 C 
ATOM     28  C   LIG    1       -6.476  -0.295  -1.082  0.00  0.00    +0.044 C 
ENDBRANCH  23  24
ENDBRANCH  11  23
TORSDOF 4
