REMARK  Name = molecules/PXBVEXGRHZFEOF-QGZVFWFLSA-N.pdb
REMARK                            x       y       z     vdW  Elec       q    Type
REMARK                         _______ _______ _______ _____ _____    ______ ____
ROOT
ATOM      1  C   LIG    1       -0.902  -3.375   1.940  0.00  0.00    +0.138 C 
ATOM      2  N   LIG    1       -0.524  -2.131   1.358  0.00  0.00    -0.269 N 
ATOM      3  C   LIG    1        0.486  -1.302   1.943  0.00  0.00    +0.284 C 
ATOM      4  O   LIG    1        0.960  -1.717   3.001  0.00  0.00    -0.269 OA
ATOM      5  C   LIG    1        1.041  -0.004   1.446  0.00  0.00    +0.383 C 
ATOM      6  N   LIG    1       -0.025   0.901   1.063  0.00  0.00    -0.232 NA
ATOM      7  C   LIG    1       -1.081   0.742   0.305  0.00  0.00    +0.079 C 
ATOM      8  C   LIG    1       -1.379  -0.515  -0.354  0.00  0.00    +0.023 A 
ATOM      9  C   LIG    1       -1.938  -0.303  -1.598  0.00  0.00    +0.032 A 
ATOM     10  C   LIG    1       -2.328  -1.408  -2.330  0.00  0.00    +0.042 A 
ATOM     11  C   LIG    1       -2.159  -2.693  -1.828  0.00  0.00    +0.022 A 
ATOM     12  C   LIG    1       -1.598  -2.913  -0.592  0.00  0.00    +0.025 A 
ATOM     13 CL   LIG    1       -3.039  -1.115  -3.895  0.00  0.00    -0.084 Cl
ATOM     14  C   LIG    1       -1.213  -1.791   0.126  0.00  0.00    +0.045 A 
ENDROOT
BRANCH   7  15
ATOM     15  C   LIG    1       -1.949   1.879   0.124  0.00  0.00    +0.001 A 
ATOM     16  C   LIG    1       -1.490   3.097   0.630  0.00  0.00    +0.010 A 
ATOM     17  C   LIG    1       -2.235   4.251   0.652  0.00  0.00    +0.001 A 
ATOM     18  C   LIG    1       -3.509   4.162   0.133  0.00  0.00    +0.000 A 
ATOM     19  C   LIG    1       -4.014   2.993  -0.376  0.00  0.00    +0.001 A 
ATOM     20  C   LIG    1       -3.209   1.856  -0.368  0.00  0.00    +0.010 A 
ENDBRANCH   7  15
BRANCH   5  21
ATOM     21  O   LIG    1        2.005  -0.198   0.435  0.00  0.00    -0.416 OA
BRANCH  21  22
ATOM     22  C   LIG    1        3.345   0.174   0.578  0.00  0.00    +0.405 C 
ATOM     23  O   LIG    1        3.655   0.702   1.673  0.00  0.00    -0.226 OA
ATOM     24  N   LIG    1        4.301  -0.029  -0.448  0.00  0.00    -0.273 N 
ATOM     25  C   LIG    1        5.666   0.387  -0.216  0.00  0.00    +0.135 C 
ATOM     26  C   LIG    1        3.966  -0.628  -1.703  0.00  0.00    +0.135 C 
ENDBRANCH  21  22
ENDBRANCH   5  21
TORSDOF 3
