REMARK  Name = molecules/PXGPLTODNUVGFL-YNNPMVKQSA-N.pdb
REMARK                            x       y       z     vdW  Elec       q    Type
REMARK                         _______ _______ _______ _____ _____    ______ ____
ROOT
ATOM      1  C   LIG    1       -1.351  -1.856  -0.123  0.00  0.00    +0.031 C 
ATOM      2  C   LIG    1       -0.145  -1.691  -0.990  0.00  0.00    +0.046 C 
ATOM      3  C   LIG    1        0.148  -3.116  -1.397  0.00  0.00    +0.124 C 
ATOM      4  C   LIG    1       -1.221  -3.719  -1.642  0.00  0.00    +0.063 C 
ATOM      5  C   LIG    1       -2.224  -2.717  -1.048  0.00  0.00    +0.121 C 
ENDROOT
BRANCH   2   6
ATOM      6  C   LIG    1        0.991  -1.009  -0.356  0.00  0.00    -0.022 C 
ATOM      7  C   LIG    1        2.185  -1.547  -0.139  0.00  0.00    -0.000 C 
BRANCH   7   8
ATOM      8  C   LIG    1        3.321  -0.844   0.504  0.00  0.00    +0.137 C 
BRANCH   8   9
ATOM      9  O   LIG    1        4.542  -1.421   0.160  0.00  0.00    -0.388 OA
ATOM     10  H   LIG    1        4.858  -1.146  -0.735  0.00  0.00    +0.210 HD
ENDBRANCH   8   9
BRANCH   8  11
ATOM     11  C   LIG    1        3.335   0.642   0.231  0.00  0.00    +0.035 C 
BRANCH  11  12
ATOM     12  C   LIG    1        4.554   1.213   0.952  0.00  0.00    +0.003 C 
BRANCH  12  13
ATOM     13  C   LIG    1        4.658   2.705   0.741  0.00  0.00    -0.000 C 
BRANCH  13  14
ATOM     14  C   LIG    1        5.888   3.180   1.487  0.00  0.00    -0.003 C 
ATOM     15  C   LIG    1        7.101   2.474   0.929  0.00  0.00    +0.004 C 
ENDBRANCH  13  14
ENDBRANCH  12  13
ENDBRANCH  11  12
ENDBRANCH   8  11
ENDBRANCH   7   8
ENDBRANCH   2   6
BRANCH   5  16
ATOM     16  O   LIG    1       -2.623  -1.935  -2.140  0.00  0.00    -0.391 OA
ATOM     17  H   LIG    1       -2.863  -2.481  -2.929  0.00  0.00    +0.210 HD
ENDBRANCH   5  16
BRANCH   3  18
ATOM     18  O   LIG    1        0.960  -3.192  -2.513  0.00  0.00    -0.391 OA
ATOM     19  H   LIG    1        1.364  -4.112  -2.514  0.00  0.00    +0.210 HD
ENDBRANCH   3  18
BRANCH   1  20
ATOM     20  C   LIG    1       -2.136  -0.554   0.082  0.00  0.00    +0.033 C 
BRANCH  20  21
ATOM     21  C   LIG    1       -3.265  -0.914   0.949  0.00  0.00    -0.031 C 
ATOM     22  C   LIG    1       -4.523  -0.773   0.636  0.00  0.00    -0.031 C 
BRANCH  22  23
ATOM     23  C   LIG    1       -4.949  -0.218  -0.665  0.00  0.00    +0.027 C 
BRANCH  23  24
ATOM     24  C   LIG    1       -5.782   1.034  -0.308  0.00  0.00    +0.015 C 
BRANCH  24  25
ATOM     25  C   LIG    1       -4.846   1.963   0.461  0.00  0.00    +0.121 C 
BRANCH  25  26
ATOM     26  C   LIG    1       -5.559   3.211   0.854  0.00  0.00    +0.305 C 
ATOM     27  O   LIG    1       -6.766   3.390   0.552  0.00  0.00    -0.251 OA
BRANCH  26  28
ATOM     28  O   LIG    1       -4.875   4.185   1.564  0.00  0.00    -0.481 OA
ATOM     29  H   LIG    1       -5.290   5.006   1.943  0.00  0.00    +0.295 HD
ENDBRANCH  26  28
ENDBRANCH  25  26
ENDBRANCH  24  25
ENDBRANCH  23  24
ENDBRANCH  22  23
ENDBRANCH  20  21
ENDBRANCH   1  20
TORSDOF 16
