REMARK  Name = molecules/PXKHGMGELZGJQE-ILBGXUMGSA-N.pdb
REMARK                            x       y       z     vdW  Elec       q    Type
REMARK                         _______ _______ _______ _____ _____    ______ ____
ROOT
ATOM      1  C   LIG    1       -5.438   0.045   0.544  0.00  0.00    +0.143 C 
ENDROOT
BRANCH   1   2
ATOM      2  N   LIG    1       -5.170  -0.686  -0.625  0.00  0.00    -0.304 N 
ATOM      3  C   LIG    1       -5.879  -1.791  -1.159  0.00  0.00    +0.246 C 
ATOM      4  O   LIG    1       -6.882  -2.351  -0.688  0.00  0.00    -0.273 OA
ATOM      5  H   LIG    1       -4.348  -0.385  -1.257  0.00  0.00    +0.149 HD
BRANCH   3   6
ATOM      6  C   LIG    1       -5.396  -2.403  -2.462  0.00  0.00    +0.256 C 
ATOM      7 CL   LIG    1       -3.791  -3.098  -2.090  0.00  0.00    -0.094 Cl
ATOM      8 CL   LIG    1       -6.449  -3.731  -2.975  0.00  0.00    -0.094 Cl
ENDBRANCH   3   6
ENDBRANCH   1   2
BRANCH   1   9
ATOM      9  C   LIG    1       -4.338   0.518   1.422  0.00  0.00    +0.257 C 
BRANCH   9  10
ATOM     10  O   LIG    1       -3.401   1.328   0.837  0.00  0.00    -0.463 OA
BRANCH  10  11
ATOM     11  C   LIG    1       -2.351   1.087   0.028  0.00  0.00    +0.307 C 
ATOM     12  O   LIG    1       -2.076  -0.088  -0.295  0.00  0.00    -0.251 OA
BRANCH  11  13
ATOM     13  C   LIG    1       -1.460   2.167  -0.529  0.00  0.00    +0.120 C 
BRANCH  13  14
ATOM     14  C   LIG    1       -0.701   2.770   0.624  0.00  0.00    +0.011 C 
BRANCH  14  15
ATOM     15  C   LIG    1        0.110   1.741   1.316  0.00  0.00    +0.001 C 
BRANCH  15  16
ATOM     16  C   LIG    1        1.124   1.143   0.365  0.00  0.00    +0.000 C 
BRANCH  16  17
ATOM     17  C   LIG    1        1.907   0.110   1.143  0.00  0.00    +0.000 C 
BRANCH  17  18
ATOM     18  C   LIG    1        2.933  -0.511   0.260  0.00  0.00    +0.000 C 
BRANCH  18  19
ATOM     19  C   LIG    1        3.892   0.508  -0.255  0.00  0.00    -0.000 C 
BRANCH  19  20
ATOM     20  C   LIG    1        4.947  -0.168  -1.139  0.00  0.00    -0.000 C 
BRANCH  20  21
ATOM     21  C   LIG    1        5.891   0.921  -1.631  0.00  0.00    -0.000 C 
BRANCH  21  22
ATOM     22  C   LIG    1        6.987   0.410  -2.495  0.00  0.00    -0.000 C 
BRANCH  22  23
ATOM     23  C   LIG    1        7.884  -0.592  -1.834  0.00  0.00    -0.000 C 
BRANCH  23  24
ATOM     24  C   LIG    1        8.576  -0.068  -0.607  0.00  0.00    -0.000 C 
BRANCH  24  25
ATOM     25  C   LIG    1        9.441  -1.177  -0.047  0.00  0.00    -0.000 C 
BRANCH  25  26
ATOM     26  C   LIG    1       10.178  -0.749   1.205  0.00  0.00    -0.003 C 
ATOM     27  C   LIG    1       11.094   0.424   0.986  0.00  0.00    +0.004 C 
ENDBRANCH  25  26
ENDBRANCH  24  25
ENDBRANCH  23  24
ENDBRANCH  22  23
ENDBRANCH  21  22
ENDBRANCH  20  21
ENDBRANCH  19  20
ENDBRANCH  18  19
ENDBRANCH  17  18
ENDBRANCH  16  17
ENDBRANCH  15  16
ENDBRANCH  14  15
ENDBRANCH  13  14
ENDBRANCH  11  13
ENDBRANCH  10  11
ENDBRANCH   9  10
ENDBRANCH   1   9
BRANCH   1  28
ATOM     28  C   LIG    1       -6.495  -0.674   1.423  0.00  0.00    +0.168 C 
BRANCH  28  29
ATOM     29  C   LIG    1       -7.859  -0.389   1.002  0.00  0.00    -0.017 A 
ATOM     30  C   LIG    1       -8.927  -0.822   1.803  0.00  0.00    +0.008 A 
ATOM     31  C   LIG    1      -10.209  -0.547   1.464  0.00  0.00    +0.033 A 
ATOM     32  C   LIG    1      -10.573   0.164   0.331  0.00  0.00    +0.126 A 
ATOM     33  C   LIG    1       -9.533   0.588  -0.454  0.00  0.00    +0.033 A 
ATOM     34  C   LIG    1       -8.200   0.307  -0.111  0.00  0.00    +0.008 A 
BRANCH  32  35
ATOM     35  N   LIG    1      -11.926   0.423   0.028  0.00  0.00    +0.056 N 
ATOM     36  O   LIG    1      -12.810   0.011   0.786  0.00  0.00    -0.126 OA
ATOM     37  O   LIG    1      -12.264   1.122  -1.090  0.00  0.00    -0.126 OA
ENDBRANCH  32  35
ENDBRANCH  28  29
BRANCH  28  38
ATOM     38  O   LIG    1       -6.157  -1.938   1.768  0.00  0.00    -0.385 OA
ATOM     39  H   LIG    1       -6.176  -2.188   2.705  0.00  0.00    +0.210 HD
ENDBRANCH  28  38
ENDBRANCH   1  28
TORSDOF 23
