REMARK  Name = molecules/PXLVRFQEBVNJOH-SECBINFHSA-N.pdb
REMARK                            x       y       z     vdW  Elec       q    Type
REMARK                         _______ _______ _______ _____ _____    ______ ____
ROOT
ATOM      1  C   LIG    1       -0.668  -0.134   0.110  0.00  0.00    +0.133 C 
ATOM      2  C   LIG    1       -1.052   0.610   1.309  0.00  0.00    +0.234 C 
ATOM      3  O   LIG    1       -0.958   0.026   2.443  0.00  0.00    -0.274 OA
ATOM      4  N   LIG    1       -1.518   1.926   1.294  0.00  0.00    -0.267 N 
ATOM      5  H   LIG    1       -1.591   2.518   2.186  0.00  0.00    +0.157 HD
ATOM      6  C   LIG    1       -1.917   2.542   0.082  0.00  0.00    +0.143 C 
ATOM      7  S   LIG    1       -2.457   4.078   0.097  0.00  0.00    -0.018 S 
ATOM      8  N   LIG    1       -1.819   1.762  -1.098  0.00  0.00    -0.267 N 
ATOM      9  H   LIG    1       -2.099   2.170  -2.004  0.00  0.00    +0.157 HD
ATOM     10  C   LIG    1       -1.343   0.425  -1.078  0.00  0.00    +0.234 C 
ATOM     11  O   LIG    1       -1.488  -0.314  -2.077  0.00  0.00    -0.274 OA
ENDROOT
BRANCH   1  12
ATOM     12  C   LIG    1        0.840  -0.127   0.013  0.00  0.00    +0.036 C 
ATOM     13  C   LIG    1        1.443   1.219   0.032  0.00  0.00    -0.026 C 
ATOM     14  C   LIG    1        2.704   1.347  -0.341  0.00  0.00    -0.031 C 
ATOM     15  C   LIG    1        3.595   0.256  -0.785  0.00  0.00    +0.027 C 
ATOM     16  C   LIG    1        2.891  -1.071  -0.883  0.00  0.00    +0.005 C 
ATOM     17  C   LIG    1        1.398  -0.893  -1.137  0.00  0.00    +0.009 C 
ENDBRANCH   1  12
BRANCH   1  18
ATOM     18  C   LIG    1       -1.109  -1.611   0.295  0.00  0.00    +0.052 C 
BRANCH  18  19
ATOM     19  C   LIG    1       -2.582  -1.626   0.485  0.00  0.00    -0.033 C 
ATOM     20  C   LIG    1       -3.125  -2.112   1.586  0.00  0.00    +0.004 C 
ENDBRANCH  18  19
ENDBRANCH   1  18
TORSDOF 3
