REMARK  Name = molecules/PXQPEWDEAKTCGB-UHFFFAOYSA-N.pdb
REMARK                            x       y       z     vdW  Elec       q    Type
REMARK                         _______ _______ _______ _____ _____    ______ ____
ROOT
ATOM      1  C   UNK    1        0.606  -0.186   0.022  0.00  0.00    +0.133 A 
ATOM      2  C   UNK    1        0.062   1.028   0.379  0.00  0.00    +0.103 A 
ATOM      3  C   UNK    1       -1.317   1.176   0.371  0.00  0.00    +0.255 A 
ATOM      4  O   UNK    1       -1.820   2.278   0.695  0.00  0.00    -0.268 OA
ATOM      5  N   UNK    1       -2.153   0.178   0.028  0.00  0.00    -0.275 N 
ATOM      6  H   UNK    1       -3.191   0.318   0.030  0.00  0.00    +0.173 HD
ATOM      7  C   UNK    1       -1.589  -0.996  -0.316  0.00  0.00    +0.327 A 
ATOM      8  O   UNK    1       -2.330  -1.967  -0.647  0.00  0.00    -0.247 OA
ATOM      9  N   UNK    1       -0.247  -1.166  -0.316  0.00  0.00    -0.302 N 
ATOM     10  H   UNK    1        0.181  -2.090  -0.587  0.00  0.00    +0.171 HD
ENDROOT
BRANCH   1  11
ATOM     11  C   UNK    1        2.057  -0.410   0.010  0.00  0.00    +0.354 C 
ATOM     12  O   UNK    1        2.517  -1.534  -0.323  0.00  0.00    -0.243 OA
BRANCH  11  13
ATOM     13  O   UNK    1        2.962   0.565   0.349  0.00  0.00    -0.476 OA
ATOM     14  H   UNK    1        3.532   0.988  -0.347  0.00  0.00    +0.295 HD
ENDBRANCH  11  13
ENDBRANCH   1  11
TORSDOF 2
