REMARK  Name = molecules/PXSOHRWMIRDKMP-UHFFFAOYSA-N.pdb
REMARK                            x       y       z     vdW  Elec       q    Type
REMARK                         _______ _______ _______ _____ _____    ______ ____
ROOT
ATOM      1  O   LIG    1        1.286   1.937   0.159  0.00  0.00    -0.284 OA
ATOM      2  C   LIG    1        0.984   0.718   0.135  0.00  0.00    +0.223 C 
ATOM      3  C   LIG    1        2.017  -0.305   0.251  0.00  0.00    +0.083 C 
ATOM      4  C   LIG    1        1.652  -1.569   0.221  0.00  0.00    +0.079 C 
ATOM      5  C   LIG    1        0.253  -1.940   0.076  0.00  0.00    +0.204 C 
ATOM      6  O   LIG    1       -0.078  -3.171   0.049  0.00  0.00    -0.286 OA
ATOM      7  C   LIG    1       -0.774  -0.912  -0.040  0.00  0.00    +0.102 C 
ATOM      8  C   LIG    1       -0.435   0.354  -0.013  0.00  0.00    +0.104 C 
ENDROOT
BRANCH   3   9
ATOM      9  N   LIG    1        3.374   0.037   0.392  0.00  0.00    -0.324 N 
ATOM     10  C   LIG    1        4.752  -0.220   0.831  0.00  0.00    +0.124 C 
ATOM     11  C   LIG    1        4.469   1.019   0.161  0.00  0.00    +0.124 C 
ENDBRANCH   3   9
BRANCH   7  12
ATOM     12  N   LIG    1       -2.147  -1.246  -0.183  0.00  0.00    -0.322 N 
ATOM     13  C   LIG    1       -3.546  -1.308   0.201  0.00  0.00    +0.124 C 
ATOM     14  C   LIG    1       -3.203  -1.897  -1.046  0.00  0.00    +0.124 C 
ENDBRANCH   7  12
BRANCH   8  15
ATOM     15  N   LIG    1       -1.434   1.349  -0.125  0.00  0.00    -0.322 N 
ATOM     16  C   LIG    1       -2.175   2.440   0.605  0.00  0.00    +0.124 C 
ATOM     17  C   LIG    1       -2.458   2.138  -0.774  0.00  0.00    +0.124 C 
ENDBRANCH   8  15
TORSDOF 3
