REMARK  Name = molecules/PXXKIYPSXYFATG-UHFFFAOYSA-N.pdb
REMARK                            x       y       z     vdW  Elec       q    Type
REMARK                         _______ _______ _______ _____ _____    ______ ____
ROOT
ATOM      1  C   LIG    1       -2.421  -0.184  -0.520  0.00  0.00    +0.095 C 
ATOM      2  C   LIG    1       -1.850  -1.093   0.488  0.00  0.00    +0.038 C 
ATOM      3  C   LIG    1       -0.369  -1.062   0.688  0.00  0.00    +0.086 C 
ATOM      4  N   LIG    1        0.354  -0.441  -0.361  0.00  0.00    -0.302 NA
ATOM      5  C   LIG    1       -0.254  -0.534  -1.655  0.00  0.00    +0.086 C 
ATOM      6  C   LIG    1       -1.503   0.352  -1.551  0.00  0.00    +0.038 C 
ENDROOT
BRANCH   1   7
ATOM      7  C   LIG    1       -3.074   0.995   0.141  0.00  0.00    -0.031 A 
ATOM      8  C   LIG    1       -2.806   1.379   1.433  0.00  0.00    +0.005 A 
ATOM      9  C   LIG    1       -3.428   2.484   2.017  0.00  0.00    +0.000 A 
ATOM     10  C   LIG    1       -4.335   3.210   1.281  0.00  0.00    +0.000 A 
ATOM     11  C   LIG    1       -4.614   2.836  -0.018  0.00  0.00    +0.000 A 
ATOM     12  C   LIG    1       -4.001   1.748  -0.592  0.00  0.00    +0.005 A 
ENDBRANCH   1   7
BRANCH   1  13
ATOM     13  C   LIG    1       -3.562  -0.876  -1.230  0.00  0.00    +0.318 C 
ATOM     14  O   LIG    1       -3.588  -1.048  -2.455  0.00  0.00    -0.250 OA
BRANCH  13  15
ATOM     15  O   LIG    1       -4.596  -1.312  -0.417  0.00  0.00    -0.464 OA
BRANCH  15  16
ATOM     16  C   LIG    1       -5.730  -1.976  -0.942  0.00  0.00    +0.229 C 
ATOM     17  C   LIG    1       -6.665  -2.321   0.182  0.00  0.00    +0.048 C 
ENDBRANCH  15  16
ENDBRANCH  13  15
ENDBRANCH   1  13
BRANCH   4  18
ATOM     18  C   LIG    1        1.755  -0.584  -0.326  0.00  0.00    +0.086 C 
BRANCH  18  19
ATOM     19  C   LIG    1        2.201  -0.455   1.116  0.00  0.00    +0.034 C 
BRANCH  19  20
ATOM     20  C   LIG    1        3.671  -0.585   1.302  0.00  0.00    +0.103 C 
BRANCH  20  21
ATOM     21  N   LIG    1        4.343   0.449   0.555  0.00  0.00    -0.344 N 
ATOM     22  H   LIG    1        3.804   1.129   0.010  0.00  0.00    +0.146 HD
BRANCH  21  23
ATOM     23  C   LIG    1        5.771   0.535   0.569  0.00  0.00    +0.027 A 
ATOM     24  C   LIG    1        6.500  -0.388   1.309  0.00  0.00    +0.023 A 
ATOM     25  C   LIG    1        7.858  -0.307   1.323  0.00  0.00    +0.002 A 
ATOM     26  C   LIG    1        8.498   0.674   0.615  0.00  0.00    +0.000 A 
ATOM     27  C   LIG    1        7.781   1.581  -0.112  0.00  0.00    +0.002 A 
ATOM     28  C   LIG    1        6.390   1.519  -0.142  0.00  0.00    +0.023 A 
ENDBRANCH  21  23
ENDBRANCH  20  21
ENDBRANCH  19  20
ENDBRANCH  18  19
ENDBRANCH   4  18
TORSDOF 9
