REMARK  Name = molecules/PYAOPMWCFSVFOT-UHFFFAOYSA-N.pdb
REMARK                            x       y       z     vdW  Elec       q    Type
REMARK                         _______ _______ _______ _____ _____    ______ ____
ROOT
ATOM      1  S   LIG    1       -0.836   3.027  -0.287  0.00  0.00    -0.030 S 
ATOM      2  C   LIG    1       -0.849   1.387  -0.122  0.00  0.00    +0.121 A 
ATOM      3  N   LIG    1       -2.000   0.704  -0.031  0.00  0.00    -0.230 NA
ATOM      4  C   LIG    1       -2.016  -0.642   0.104  0.00  0.00    +0.199 A 
ATOM      5  N   LIG    1       -0.841  -1.296   0.147  0.00  0.00    -0.331 N 
ATOM      6  H   LIG    1       -0.797  -2.333   0.250  0.00  0.00    +0.168 HD
ATOM      7  C   LIG    1        0.338  -0.650   0.059  0.00  0.00    +0.137 A 
ATOM      8  N   LIG    1        1.633  -1.040   0.072  0.00  0.00    -0.262 N 
ATOM      9  H   LIG    1        1.902  -2.045   0.168  0.00  0.00    +0.190 HD
ATOM     10  N   LIG    1        2.416   0.018  -0.050  0.00  0.00    -0.180 NA
ATOM     11  C   LIG    1        1.686   1.140  -0.148  0.00  0.00    +0.146 A 
ATOM     12  C   LIG    1        0.360   0.727  -0.080  0.00  0.00    +0.069 A 
ENDROOT
TORSDOF 0
