REMARK  Name = molecules/PYGWGZALEOIKDF-UHFFFAOYSA-N.pdb
REMARK                            x       y       z     vdW  Elec       q    Type
REMARK                         _______ _______ _______ _____ _____    ______ ____
ROOT
ATOM      1  C   LIG    1       -0.742   1.042   1.085  0.00  0.00    +0.241 A 
ATOM      2  N   LIG    1        0.093  -0.035   0.920  0.00  0.00    -0.178 NA
ATOM      3  C   LIG    1        1.368   0.036   0.499  0.00  0.00    +0.224 A 
ATOM      4  N   LIG    1        1.806   1.274   0.236  0.00  0.00    -0.198 NA
ATOM      5  C   LIG    1        1.072   2.378   0.368  0.00  0.00    +0.139 A 
ATOM      6  C   LIG    1       -0.265   2.272   0.814  0.00  0.00    +0.119 A 
ATOM      7 BR   LIG    1       -1.209   3.923   1.125  0.00  0.00    -0.041 Br
ENDROOT
BRANCH   5   8
ATOM      8  N   LIG    1        1.556   3.674   0.086  0.00  0.00    -0.342 N 
ATOM      9  H   LIG    1        2.572   3.868   0.071  0.00  0.00    +0.144 HD
ATOM     10  H   LIG    1        0.897   4.446  -0.108  0.00  0.00    +0.144 HD
ENDBRANCH   5   8
BRANCH   3  11
ATOM     11  N   LIG    1        2.150  -1.136   0.363  0.00  0.00    -0.283 N 
ATOM     12  H   LIG    1        1.667  -2.055   0.621  0.00  0.00    +0.155 HD
BRANCH  11  13
ATOM     13  C   LIG    1        3.476  -1.231  -0.072  0.00  0.00    +0.034 A 
ATOM     14  C   LIG    1        4.175  -2.445   0.064  0.00  0.00    +0.024 A 
ATOM     15  C   LIG    1        5.464  -2.521  -0.354  0.00  0.00    +0.020 A 
ATOM     16  C   LIG    1        6.111  -1.436  -0.909  0.00  0.00    +0.052 A 
ATOM     17  C   LIG    1        5.452  -0.239  -1.053  0.00  0.00    +0.020 A 
ATOM     18  C   LIG    1        4.120  -0.156  -0.625  0.00  0.00    +0.024 A 
BRANCH  16  19
ATOM     19  C   LIG    1        7.489  -1.564  -1.344  0.00  0.00    +0.099 C 
ATOM     20  N   LIG    1        8.575  -1.675  -1.706  0.00  0.00    -0.191 NA
ENDBRANCH  16  19
ENDBRANCH  11  13
ENDBRANCH   3  11
BRANCH   1  21
ATOM     21  O   LIG    1       -2.041   0.764   1.537  0.00  0.00    -0.436 OA
BRANCH  21  22
ATOM     22  C   LIG    1       -3.104   0.384   0.756  0.00  0.00    +0.136 A 
ATOM     23  C   LIG    1       -3.188  -1.033   0.609  0.00  0.00    -0.007 A 
ATOM     24  C   LIG    1       -2.239  -1.933   1.293  0.00  0.00    +0.047 C 
ATOM     25  C   LIG    1       -4.179  -1.616  -0.142  0.00  0.00    +0.025 A 
ATOM     26  C   LIG    1       -5.128  -0.878  -0.778  0.00  0.00    +0.052 A 
ATOM     27  C   LIG    1       -5.067   0.474  -0.648  0.00  0.00    +0.025 A 
ATOM     28  C   LIG    1       -4.053   1.075   0.120  0.00  0.00    -0.007 A 
ATOM     29  C   LIG    1       -4.143   2.537   0.210  0.00  0.00    +0.047 C 
BRANCH  26  30
ATOM     30  C   LIG    1       -6.160  -1.494  -1.563  0.00  0.00    +0.099 C 
ATOM     31  N   LIG    1       -6.969  -1.991  -2.204  0.00  0.00    -0.191 NA
ENDBRANCH  26  30
ENDBRANCH  21  22
ENDBRANCH   1  21
TORSDOF 7
