REMARK  Name = molecules/PYSOHOOUXFWCFF-UHFFFAOYSA-N.pdb
REMARK                            x       y       z     vdW  Elec       q    Type
REMARK                         _______ _______ _______ _____ _____    ______ ____
ROOT
ATOM      1  C   LIG    1       -0.113   0.553  -0.028  0.00  0.00    +0.051 A 
ATOM      2  C   LIG    1       -1.461   0.454   0.309  0.00  0.00    +0.147 A 
ATOM      3  C   LIG    1       -2.099   1.491   0.956  0.00  0.00    +0.065 A 
ATOM      4  C   LIG    1       -3.441   1.333   1.266  0.00  0.00    +0.200 A 
ATOM      5  O   LIG    1       -4.047   2.261   1.854  0.00  0.00    -0.286 OA
ATOM      6  C   LIG    1       -4.124   0.177   0.940  0.00  0.00    +0.065 A 
ATOM      7  C   LIG    1       -5.455  -0.034   1.223  0.00  0.00    +0.015 A 
ATOM      8  C   LIG    1       -6.096  -1.213   0.875  0.00  0.00    +0.001 A 
ATOM      9  C   LIG    1       -5.401  -2.210   0.231  0.00  0.00    +0.004 A 
ATOM     10  C   LIG    1       -4.070  -1.992  -0.049  0.00  0.00    +0.047 A 
ATOM     11  C   LIG    1       -3.407  -0.819   0.290  0.00  0.00    +0.139 A 
ATOM     12  C   LIG    1       -1.375   2.623   1.259  0.00  0.00    +0.019 A 
ATOM     13  C   LIG    1       -0.050   2.771   0.949  0.00  0.00    +0.047 A 
ATOM     14  O   LIG    1       -2.138  -0.636   0.012  0.00  0.00    -0.454 OA
ATOM     15  C   LIG    1        0.569   1.700   0.292  0.00  0.00    +0.128 A 
ENDROOT
BRANCH  15  16
ATOM     16  O   LIG    1        1.906   1.880  -0.013  0.00  0.00    -0.495 OA
ATOM     17  C   LIG    1        2.615   3.045   0.308  0.00  0.00    +0.277 C 
ENDBRANCH  15  16
BRANCH   1  18
ATOM     18  C   LIG    1        0.477  -0.569  -0.738  0.00  0.00    +0.127 C 
BRANCH  18  19
ATOM     19  N   LIG    1        1.876  -0.497  -1.022  0.00  0.00    -0.298 NA
ATOM     20  C   LIG    1        2.534  -0.938   0.243  0.00  0.00    +0.085 C 
ATOM     21  C   LIG    1        3.988  -0.615   0.207  0.00  0.00    +0.015 C 
ATOM     22  C   LIG    1        4.435  -0.739  -1.253  0.00  0.00    +0.002 C 
ATOM     23  C   LIG    1        3.671  -1.924  -1.831  0.00  0.00    +0.015 C 
ATOM     24  C   LIG    1        2.197  -1.605  -1.954  0.00  0.00    +0.085 C 
ENDBRANCH  18  19
ENDBRANCH   1  18
TORSDOF 3
