REMARK  Name = molecules/PYVUMAGVCSQCBD-RFAUZJTJSA-N.pdb
REMARK                            x       y       z     vdW  Elec       q    Type
REMARK                         _______ _______ _______ _____ _____    ______ ____
ROOT
ATOM      1  O   LIG    1        2.124  -2.424   1.588  0.00  0.00    -0.153 OA
ATOM      2  S   LIG    1        1.797  -0.978   1.915  0.00  0.00    +0.062 S 
ATOM      3  O   LIG    1        2.860  -0.542   2.905  0.00  0.00    -0.153 OA
ATOM      4  N   LIG    1        0.241  -0.894   2.533  0.00  0.00    -0.169 NA
ATOM      5  H   LIG    1        0.151  -0.939   3.564  0.00  0.00    +0.150 HD
ATOM      6  C   LIG    1       -0.705  -0.088   1.865  0.00  0.00    +0.167 C 
ATOM      7  N   LIG    1       -0.262   0.850   0.919  0.00  0.00    -0.325 N 
ATOM      8  H   LIG    1       -0.843   1.735   0.798  0.00  0.00    +0.148 HD
ATOM      9  C   LIG    1        0.878   0.763   0.099  0.00  0.00    +0.056 A 
ATOM     10  C   LIG    1        0.986   1.486  -1.065  0.00  0.00    +0.047 A 
ATOM     11  C   LIG    1        2.118   1.390  -1.867  0.00  0.00    +0.069 A 
ATOM     12  C   LIG    1        3.166   0.549  -1.495  0.00  0.00    +0.125 A 
ATOM     13  C   LIG    1        3.011  -0.155  -0.321  0.00  0.00    +0.060 A 
ATOM     14 CL   LIG    1        2.298   2.285  -3.346  0.00  0.00    -0.081 Cl
ATOM     15  C   LIG    1        1.912  -0.062   0.458  0.00  0.00    +0.128 A 
ENDROOT
BRANCH  12  16
ATOM     16  S   LIG    1        4.595   0.419  -2.494  0.00  0.00    +0.057 S 
ATOM     17  O   LIG    1        5.295   1.764  -2.551  0.00  0.00    -0.153 OA
ATOM     18  O   LIG    1        4.277  -0.004  -3.888  0.00  0.00    -0.153 OA
BRANCH  16  19
ATOM     19  N   LIG    1        5.683  -0.692  -1.754  0.00  0.00    -0.203 NA
ATOM     20  H   LIG    1        5.982  -0.292  -0.833  0.00  0.00    +0.144 HD
ATOM     21  H   LIG    1        5.263  -1.638  -1.660  0.00  0.00    +0.144 HD
ENDBRANCH  16  19
ENDBRANCH  12  16
BRANCH   6  22
ATOM     22  C   LIG    1       -1.735  -1.029   1.222  0.00  0.00    +0.052 C 
ATOM     23  C   LIG    1       -1.058  -1.958   0.240  0.00  0.00    +0.016 C 
BRANCH  22  24
ATOM     24  C   LIG    1       -2.870  -0.286   0.629  0.00  0.00    -0.041 A 
ATOM     25  C   LIG    1       -4.137  -0.318   1.220  0.00  0.00    +0.004 A 
ATOM     26  C   LIG    1       -5.209   0.360   0.682  0.00  0.00    +0.000 A 
ATOM     27  C   LIG    1       -5.078   1.104  -0.471  0.00  0.00    +0.000 A 
ATOM     28  C   LIG    1       -3.836   1.144  -1.064  0.00  0.00    +0.000 A 
ATOM     29  C   LIG    1       -2.752   0.460  -0.522  0.00  0.00    +0.004 A 
ENDBRANCH  22  24
ENDBRANCH   6  22
TORSDOF 4
