REMARK  Name = molecules/PYWBJEDBESDHNP-ROUUACIJSA-N.pdb
REMARK                            x       y       z     vdW  Elec       q    Type
REMARK                         _______ _______ _______ _____ _____    ______ ____
ROOT
ATOM      1  C   LIG    1        0.788   1.213  -1.014  0.00  0.00    +0.026 C 
ENDROOT
BRANCH   1   2
ATOM      2  C   LIG    1        1.432  -0.119  -0.700  0.00  0.00    -0.043 A 
ATOM      3  C   LIG    1        2.077  -0.345   0.489  0.00  0.00    +0.011 A 
ATOM      4  C   LIG    1        2.671  -1.558   0.790  0.00  0.00    -0.009 A 
ATOM      5  C   LIG    1        3.350  -1.737   2.091  0.00  0.00    +0.047 C 
ATOM      6  C   LIG    1        2.609  -2.576  -0.145  0.00  0.00    +0.120 A 
ATOM      7  C   LIG    1        1.961  -2.381  -1.365  0.00  0.00    +0.046 A 
ATOM      8  C   LIG    1        1.380  -1.136  -1.614  0.00  0.00    +0.007 A 
BRANCH   6   9
ATOM      9  O   LIG    1        3.176  -3.807   0.087  0.00  0.00    -0.507 OA
ATOM     10  H   LIG    1        3.125  -4.531  -0.593  0.00  0.00    +0.292 HD
ENDBRANCH   6   9
ENDBRANCH   1   2
BRANCH   1  11
ATOM     11  C   LIG    1        1.867   2.231  -1.192  0.00  0.00    +0.005 C 
ATOM     12  C   LIG    1        1.476   3.550  -1.744  0.00  0.00    +0.004 C 
ENDBRANCH   1  11
BRANCH   1  13
ATOM     13  C   LIG    1       -0.310   1.513  -0.086  0.00  0.00    +0.026 C 
BRANCH  13  14
ATOM     14  C   LIG    1       -1.282   0.355  -0.153  0.00  0.00    -0.043 A 
ATOM     15  C   LIG    1       -1.509  -0.426   0.958  0.00  0.00    +0.011 A 
ATOM     16  C   LIG    1       -2.402  -1.474   0.860  0.00  0.00    -0.009 A 
ATOM     17  C   LIG    1       -2.695  -2.364   2.033  0.00  0.00    +0.047 C 
ATOM     18  C   LIG    1       -3.019  -1.679  -0.351  0.00  0.00    +0.120 A 
ATOM     19  C   LIG    1       -2.791  -0.897  -1.460  0.00  0.00    +0.046 A 
ATOM     20  C   LIG    1       -1.898   0.153  -1.368  0.00  0.00    +0.007 A 
BRANCH  18  21
ATOM     21  O   LIG    1       -3.916  -2.733  -0.445  0.00  0.00    -0.507 OA
ATOM     22  H   LIG    1       -4.132  -3.341   0.313  0.00  0.00    +0.292 HD
ENDBRANCH  18  21
ENDBRANCH  13  14
BRANCH  13  23
ATOM     23  C   LIG    1       -1.096   2.720  -0.424  0.00  0.00    +0.005 C 
ATOM     24  C   LIG    1       -2.255   2.912   0.600  0.00  0.00    +0.004 C 
ENDBRANCH  13  23
ENDBRANCH   1  13
TORSDOF 7
