REMARK  Name = molecules/PZMAHNDJABQWGS-IBGZPJMESA-N.pdb
REMARK                            x       y       z     vdW  Elec       q    Type
REMARK                         _______ _______ _______ _____ _____    ______ ____
ROOT
ATOM      1  C   LIG    1       -0.596  -0.025  -0.762  0.00  0.00    +0.120 C 
ENDROOT
BRANCH   1   2
ATOM      2  C   LIG    1        0.836   0.170  -0.625  0.00  0.00    +0.047 C 
ATOM      3  C   LIG    1        1.402   0.843   0.588  0.00  0.00    +0.091 C 
ATOM      4  N   LIG    1        2.864   0.826   0.390  0.00  0.00    -0.302 NA
ATOM      5  C   LIG    1        3.390  -0.467   0.828  0.00  0.00    +0.084 C 
ATOM      6  C   LIG    1        2.544  -1.535   0.163  0.00  0.00    +0.019 C 
ATOM      7  C   LIG    1        3.231   0.964  -1.006  0.00  0.00    +0.084 C 
ATOM      8  C   LIG    1        2.928  -0.315  -1.807  0.00  0.00    +0.019 C 
ATOM      9  C   LIG    1        1.764  -0.944  -0.994  0.00  0.00    -0.001 C 
ENDBRANCH   1   2
BRANCH   1  11
ATOM     10  C   LIG    1       -1.743   2.184  -1.245  0.00  0.00    +0.007 A 
ATOM     11  C   LIG    1       -1.275   1.261  -0.341  0.00  0.00    -0.011 A 
ATOM     12  C   LIG    1       -1.454   1.547   1.002  0.00  0.00    +0.007 A 
ATOM     13  C   LIG    1       -2.082   2.724   1.373  0.00  0.00    +0.000 A 
ATOM     14  C   LIG    1       -2.545   3.638   0.446  0.00  0.00    +0.000 A 
ATOM     15  C   LIG    1       -2.370   3.360  -0.891  0.00  0.00    +0.000 A 
ENDBRANCH   1  11
BRANCH   1  16
ATOM     16  C   LIG    1       -1.352  -1.090  -0.187  0.00  0.00    -0.011 A 
ATOM     17  C   LIG    1       -1.110  -1.789   0.963  0.00  0.00    +0.007 A 
ATOM     18  C   LIG    1       -1.920  -2.795   1.435  0.00  0.00    +0.000 A 
ATOM     19  C   LIG    1       -3.039  -3.148   0.748  0.00  0.00    +0.000 A 
ATOM     20  C   LIG    1       -3.332  -2.485  -0.409  0.00  0.00    +0.000 A 
ATOM     21  C   LIG    1       -2.512  -1.485  -0.863  0.00  0.00    +0.007 A 
ENDBRANCH   1  16
BRANCH   1  22
ATOM     22  O   LIG    1       -0.827  -0.090  -2.168  0.00  0.00    -0.379 OA
ATOM     23  H   LIG    1       -0.688  -1.009  -2.472  0.00  0.00    +0.211 HD
ENDBRANCH   1  22
TORSDOF 4
