REMARK  Name = molecules/PZMVOUYYNKPMSI-UHFFFAOYSA-N.pdb
REMARK                            x       y       z     vdW  Elec       q    Type
REMARK                         _______ _______ _______ _____ _____    ______ ____
ROOT
ATOM      1  C   LIG    1        0.343   0.233  -0.287  0.00  0.00    +0.022 A 
ATOM      2  C   LIG    1        1.028  -0.955  -0.093  0.00  0.00    +0.015 A 
ATOM      3  C   LIG    1        2.395  -0.996   0.073  0.00  0.00    +0.050 A 
ATOM      4  C   LIG    1        3.127   0.174   0.049  0.00  0.00    +0.158 A 
ATOM      5  C   LIG    1        2.475   1.400  -0.144  0.00  0.00    +0.159 A 
ATOM      6  C   LIG    1        1.104   1.369  -0.303  0.00  0.00    +0.060 A 
ENDROOT
BRANCH   1   7
ATOM      7  C   LIG    1       -1.091   0.238  -0.462  0.00  0.00    +0.177 C 
ATOM      8  O   LIG    1       -1.658   1.337  -0.622  0.00  0.00    -0.291 OA
BRANCH   7   9
ATOM      9  C   LIG    1       -1.833  -1.003  -0.451  0.00  0.00    +0.161 C 
BRANCH   9  10
ATOM     10  N   LIG    1       -3.249  -0.884  -0.655  0.00  0.00    -0.312 NA
ATOM     11  C   LIG    1       -3.983  -0.257   0.390  0.00  0.00    +0.101 C 
ATOM     12  H   LIG    1       -3.672  -1.815  -0.887  0.00  0.00    +0.122 HD
ENDBRANCH   9  10
ENDBRANCH   7   9
ENDBRANCH   1   7
BRANCH   4  13
ATOM     13  O   LIG    1        4.490   0.126   0.215  0.00  0.00    -0.503 OA
ATOM     14  H   LIG    1        5.098   0.907   0.212  0.00  0.00    +0.292 HD
ENDBRANCH   4  13
BRANCH   5  15
ATOM     15  O   LIG    1        3.189   2.566  -0.170  0.00  0.00    -0.503 OA
ATOM     16  H   LIG    1        4.171   2.688  -0.068  0.00  0.00    +0.292 HD
ENDBRANCH   5  15
TORSDOF 5
