REMARK  Name = molecules/QAGYKUNXZHXKMR-HKWSIXNMSA-N.pdb
REMARK                            x       y       z     vdW  Elec       q    Type
REMARK                         _______ _______ _______ _____ _____    ______ ____
ROOT
ATOM      1  C   LIG    1        0.783  -0.090  -0.224  0.00  0.00    +0.149 C 
ENDROOT
BRANCH   1   2
ATOM      2  O   LIG    1        0.038  -0.203  -1.388  0.00  0.00    -0.389 OA
ATOM      3  H   LIG    1        0.559   0.146  -2.142  0.00  0.00    +0.210 HD
ENDBRANCH   1   2
BRANCH   1   4
ATOM      4  C   LIG    1       -0.019   0.494   0.907  0.00  0.00    +0.118 C 
BRANCH   4   6
ATOM      5  C   LIG    1       -2.252  -0.343   0.361  0.00  0.00    +0.143 C 
ATOM      6  N   LIG    1       -1.185  -0.269   1.253  0.00  0.00    -0.289 NA
ATOM      7  C   LIG    1       -0.884  -1.429   2.030  0.00  0.00    +0.089 C 
ATOM      8  C   LIG    1       -2.010  -2.243   2.522  0.00  0.00    +0.006 C 
ATOM      9  C   LIG    1       -2.513  -1.880   3.901  0.00  0.00    +0.005 C 
ATOM     10  C   LIG    1       -3.501  -2.959   4.294  0.00  0.00    +0.000 C 
ATOM     11  C   LIG    1       -4.684  -2.983   3.350  0.00  0.00    +0.000 C 
ATOM     12  C   LIG    1       -4.287  -3.130   1.906  0.00  0.00    +0.004 C 
ATOM     13  C   LIG    1       -3.125  -2.301   1.500  0.00  0.00    -0.005 C 
ATOM     14  C   LIG    1       -3.473  -0.888   1.151  0.00  0.00    +0.032 C 
BRANCH   5  15
ATOM     15  C   LIG    1       -2.627   0.863  -0.349  0.00  0.00    +0.231 C 
ATOM     16  O   LIG    1       -2.066   1.957  -0.155  0.00  0.00    -0.274 OA
ATOM     17  N   LIG    1       -3.670   0.858  -1.315  0.00  0.00    -0.309 N 
ATOM     18  H   LIG    1       -4.158  -0.031  -1.507  0.00  0.00    +0.149 HD
BRANCH  17  19
ATOM     19  C   LIG    1       -4.080   2.033  -2.041  0.00  0.00    +0.026 C 
ATOM     20  C   LIG    1       -4.537   3.133  -1.109  0.00  0.00    +0.031 C 
ATOM     21  C   LIG    1       -2.956   2.620  -2.879  0.00  0.00    +0.031 C 
ATOM     22  C   LIG    1       -5.215   1.742  -2.995  0.00  0.00    +0.031 C 
ENDBRANCH  17  19
ENDBRANCH   5  15
ENDBRANCH   4   6
ENDBRANCH   1   4
BRANCH   1  23
ATOM     23  C   LIG    1        2.120   0.507  -0.456  0.00  0.00    +0.113 C 
BRANCH  23  24
ATOM     24  N   LIG    1        2.924  -0.378  -1.352  0.00  0.00    -0.305 N 
ATOM     25  C   LIG    1        4.152  -0.890  -0.952  0.00  0.00    +0.245 C 
ATOM     26  O   LIG    1        4.517  -0.520   0.238  0.00  0.00    -0.270 OA
ATOM     27  H   LIG    1        2.496  -0.539  -2.257  0.00  0.00    +0.149 HD
BRANCH  25  28
ATOM     28  C   LIG    1        5.049  -1.758  -1.684  0.00  0.00    +0.043 A 
ATOM     29  C   LIG    1        6.417  -1.683  -1.341  0.00  0.00    +0.013 A 
ATOM     30  C   LIG    1        7.334  -2.437  -2.013  0.00  0.00    +0.004 A 
ATOM     31  C   LIG    1        6.939  -3.280  -3.034  0.00  0.00    +0.046 A 
ATOM     32  C   LIG    1        5.619  -3.342  -3.353  0.00  0.00    +0.120 A 
ATOM     33  C   LIG    1        4.645  -2.581  -2.682  0.00  0.00    +0.003 A 
ATOM     34  C   LIG    1        3.231  -2.746  -3.072  0.00  0.00    +0.048 C 
BRANCH  32  35
ATOM     35  O   LIG    1        5.192  -4.186  -4.382  0.00  0.00    -0.506 OA
ATOM     36  H   LIG    1        5.867  -4.751  -4.885  0.00  0.00    +0.292 HD
ENDBRANCH  32  35
ENDBRANCH  25  28
ENDBRANCH  23  24
BRANCH  23  37
ATOM     37  C   LIG    1        2.097   1.818  -1.184  0.00  0.00    +0.099 C 
BRANCH  37  38
ATOM     38  S   LIG    1        1.237   3.148  -0.396  0.00  0.00    -0.123 S 
BRANCH  38  39
ATOM     39  C   LIG    1        2.019   3.820   1.030  0.00  0.00    +0.008 A 
ATOM     40  C   LIG    1        1.740   3.396   2.294  0.00  0.00    +0.015 A 
ATOM     41  C   LIG    1        2.376   3.966   3.412  0.00  0.00    +0.001 A 
ATOM     42  C   LIG    1        3.297   4.968   3.230  0.00  0.00    +0.000 A 
ATOM     43  C   LIG    1        3.580   5.396   1.953  0.00  0.00    +0.001 A 
ATOM     44  C   LIG    1        2.962   4.843   0.876  0.00  0.00    +0.015 A 
ENDBRANCH  38  39
ENDBRANCH  37  38
ENDBRANCH  23  37
ENDBRANCH   1  23
TORSDOF 12
