REMARK  Name = molecules/QANMHLXAZMSUEX-UHFFFAOYSA-N.pdb
REMARK                            x       y       z     vdW  Elec       q    Type
REMARK                         _______ _______ _______ _____ _____    ______ ____
ROOT
ATOM      1  C   LIG    1       -1.357  -0.185  -0.155  0.00  0.00    +0.127 A 
ATOM      2  N   LIG    1       -1.838  -1.424  -0.117  0.00  0.00    -0.333 N 
ATOM      3  C   LIG    1       -3.144  -1.744  -0.085  0.00  0.00    +0.200 A 
ATOM      4  N   LIG    1       -4.037  -0.737  -0.091  0.00  0.00    -0.216 NA
ATOM      5  C   LIG    1       -3.690   0.562  -0.128  0.00  0.00    +0.185 A 
ATOM      6  N   LIG    1       -4.304   1.744  -0.143  0.00  0.00    -0.214 NA
ATOM      7  C   LIG    1       -3.407   2.744  -0.183  0.00  0.00    +0.224 A 
ATOM      8  N   LIG    1       -2.170   2.198  -0.194  0.00  0.00    -0.229 NA
ATOM      9  H   LIG    1       -1.169  -2.243  -0.111  0.00  0.00    +0.168 HD
ATOM     10  C   LIG    1       -2.260   0.856  -0.162  0.00  0.00    +0.147 A 
ENDROOT
BRANCH   1  11
ATOM     11  N   LIG    1        0.036   0.082  -0.187  0.00  0.00    -0.322 N 
ATOM     12  H   LIG    1        0.364   1.073  -0.216  0.00  0.00    +0.148 HD
BRANCH  11  13
ATOM     13  C   LIG    1        1.048  -0.927  -0.183  0.00  0.00    +0.177 C 
BRANCH  13  14
ATOM     14  C   LIG    1        2.411  -0.344  -0.223  0.00  0.00    +0.122 A 
ATOM     15  C   LIG    1        3.575  -1.073  -0.228  0.00  0.00    +0.046 A 
ATOM     16  C   LIG    1        4.600  -0.123  -0.270  0.00  0.00    +0.041 A 
ATOM     17  C   LIG    1        4.006   1.099  -0.286  0.00  0.00    +0.195 A 
ATOM     18  O   LIG    1        2.696   0.929  -0.258  0.00  0.00    -0.466 OA
ENDBRANCH  13  14
ENDBRANCH  11  13
ENDBRANCH   1  11
TORSDOF 3
