REMARK  Name = molecules/QAZKXHSIKKNOHH-UHFFFAOYSA-N.pdb
REMARK                            x       y       z     vdW  Elec       q    Type
REMARK                         _______ _______ _______ _____ _____    ______ ____
ROOT
ATOM      1  C   LIG    1        0.531   0.275   0.604  0.00  0.00    +0.086 C 
ENDROOT
BRANCH   1   5
ATOM      2  C   LIG    1       -3.634  -0.443   0.066  0.00  0.00    +0.101 C 
ATOM      3  C   LIG    1       -3.076   0.261   1.258  0.00  0.00    +0.047 C 
ATOM      4  C   LIG    1       -1.648  -0.130   1.579  0.00  0.00    +0.086 C 
ATOM      5  N   LIG    1       -0.798  -0.257   0.458  0.00  0.00    -0.302 NA
ATOM      6  C   LIG    1       -1.381   0.177  -0.792  0.00  0.00    +0.086 C 
ATOM      7  C   LIG    1       -2.611  -0.637  -1.032  0.00  0.00    +0.047 C 
BRANCH   2   8
ATOM      8  N   LIG    1       -4.807   0.194  -0.400  0.00  0.00    -0.289 NA
ATOM      9  C   LIG    1       -4.746   1.573  -0.731  0.00  0.00    +0.085 C 
ATOM     10  C   LIG    1       -6.134   2.156  -0.423  0.00  0.00    +0.015 C 
ATOM     11  C   LIG    1       -7.137   1.041  -0.442  0.00  0.00    +0.002 C 
ATOM     12  C   LIG    1       -6.899  -0.001  -1.495  0.00  0.00    +0.015 C 
ATOM     13  C   LIG    1       -5.454  -0.464  -1.530  0.00  0.00    +0.085 C 
ENDBRANCH   2   8
BRANCH   2  14
ATOM     14  C   LIG    1       -4.015  -1.815   0.567  0.00  0.00    +0.231 C 
ATOM     15  N   LIG    1       -3.058  -2.751   0.975  0.00  0.00    -0.328 N 
ATOM     16  H   LIG    1       -3.022  -3.062   1.960  0.00  0.00    +0.145 HD
ATOM     17  H   LIG    1       -2.381  -3.140   0.301  0.00  0.00    +0.145 HD
ATOM     18  O   LIG    1       -5.241  -2.080   0.599  0.00  0.00    -0.274 OA
ENDBRANCH   2  14
ENDBRANCH   1   5
BRANCH   1  19
ATOM     19  C   LIG    1        1.375  -0.468   1.564  0.00  0.00    +0.035 C 
BRANCH  19  20
ATOM     20  C   LIG    1        2.759  -0.091   1.824  0.00  0.00    +0.112 C 
BRANCH  20  21
ATOM     21  N   LIG    1        3.744  -0.062   0.823  0.00  0.00    -0.300 N 
ATOM     22  C   LIG    1        4.156   1.197   0.321  0.00  0.00    +0.039 A 
ATOM     23  C   LIG    1        3.350   2.241   0.678  0.00  0.00    +0.043 A 
ATOM     24  C   LIG    1        3.591   3.548   0.288  0.00  0.00    +0.043 A 
ATOM     25 CL   LIG    1        2.532   4.854   0.768  0.00  0.00    -0.083 Cl
ATOM     26  C   LIG    1        4.677   3.865  -0.494  0.00  0.00    +0.020 A 
ATOM     27  C   LIG    1        5.503   2.850  -0.869  0.00  0.00    +0.007 A 
ATOM     28  C   LIG    1        5.260   1.550  -0.479  0.00  0.00    -0.026 A 
ATOM     29  C   LIG    1        6.279   0.614  -0.989  0.00  0.00    +0.042 C 
ATOM     30  C   LIG    1        5.592  -0.497  -1.753  0.00  0.00    +0.042 C 
ATOM     31  C   LIG    1        5.101  -1.513  -0.808  0.00  0.00    -0.026 A 
ATOM     32  C   LIG    1        5.519  -2.785  -1.123  0.00  0.00    +0.005 A 
ATOM     33  C   LIG    1        5.148  -3.854  -0.337  0.00  0.00    +0.000 A 
ATOM     34  C   LIG    1        4.359  -3.637   0.764  0.00  0.00    +0.002 A 
ATOM     35  C   LIG    1        3.940  -2.369   1.080  0.00  0.00    +0.024 A 
ATOM     36  C   LIG    1        4.293  -1.291   0.318  0.00  0.00    +0.037 A 
ENDBRANCH  20  21
ENDBRANCH  19  20
ENDBRANCH   1  19
TORSDOF 6
