REMARK  Name = molecules/QBKSWRVVCFFDOT-UHFFFAOYSA-N.pdb
REMARK                            x       y       z     vdW  Elec       q    Type
REMARK                         _______ _______ _______ _____ _____    ______ ____
ROOT
ATOM      1  C   LIG    1       -4.806  -0.192   0.201  0.00  0.00    +0.008 A 
ATOM      2  C   LIG    1       -3.420  -0.154   0.075  0.00  0.00    -0.007 A 
ATOM      3  C   LIG    1       -2.635  -0.169   1.205  0.00  0.00    +0.013 A 
ATOM      4  C   LIG    1       -1.255  -0.134   1.157  0.00  0.00    -0.039 A 
ATOM      5  C   LIG    1       -0.488  -0.161   2.438  0.00  0.00    +0.044 C 
ATOM      6  C   LIG    1       -0.691  -0.082  -0.080  0.00  0.00    +0.031 A 
ATOM      7  C   LIG    1       -1.421  -0.065  -1.256  0.00  0.00    +0.133 A 
ATOM      8  C   LIG    1       -2.798  -0.101  -1.176  0.00  0.00    +0.034 A 
ATOM      9  C   LIG    1       -3.617  -0.088  -2.279  0.00  0.00    +0.043 A 
ATOM     10  C   LIG    1       -5.014  -0.127  -2.144  0.00  0.00    +0.165 A 
ATOM     11  C   LIG    1       -5.599  -0.177  -0.923  0.00  0.00    +0.163 A 
ENDROOT
BRANCH   6  12
ATOM     12  C   LIG    1        0.750  -0.041  -0.202  0.00  0.00    +0.031 A 
ATOM     13  C   LIG    1        1.459  -1.220  -0.257  0.00  0.00    +0.133 A 
ATOM     14  C   LIG    1        2.835  -1.189  -0.385  0.00  0.00    +0.038 A 
ATOM     15  C   LIG    1        3.570  -2.353  -0.445  0.00  0.00    +0.070 A 
ATOM     16  C   LIG    1        4.969  -2.202  -0.577  0.00  0.00    +0.170 A 
ATOM     17  C   LIG    1        5.585  -0.982  -0.644  0.00  0.00    +0.163 A 
ATOM     18  C   LIG    1        4.839   0.174  -0.584  0.00  0.00    +0.008 A 
ATOM     19  C   LIG    1        3.458   0.060  -0.453  0.00  0.00    -0.006 A 
ATOM     20  C   LIG    1        2.714   1.244  -0.394  0.00  0.00    +0.013 A 
ATOM     21  C   LIG    1        1.347   1.179  -0.267  0.00  0.00    -0.039 A 
ATOM     22  C   LIG    1        0.614   2.477  -0.216  0.00  0.00    +0.044 C 
BRANCH  18  23
ATOM     23  C   LIG    1        5.405   1.524  -0.647  0.00  0.00    +0.017 C 
ATOM     24  C   LIG    1        5.350   2.202   0.725  0.00  0.00    +0.012 C 
ATOM     25  C   LIG    1        6.873   1.571  -1.055  0.00  0.00    +0.012 C 
ENDBRANCH  18  23
BRANCH  13  26
ATOM     26  O   LIG    1        0.752  -2.429  -0.182  0.00  0.00    -0.506 OA
ATOM     27  H   LIG    1       -0.251  -2.464  -0.095  0.00  0.00    +0.292 HD
ENDBRANCH  13  26
BRANCH  15  28
ATOM     28  C   LIG    1        3.011  -3.683  -0.386  0.00  0.00    +0.263 C 
ATOM     29  O   LIG    1        1.896  -4.138  -0.279  0.00  0.00    -0.296 OA
ENDBRANCH  15  28
BRANCH  16  30
ATOM     30  O   LIG    1        5.712  -3.364  -0.637  0.00  0.00    -0.503 OA
ATOM     31  H   LIG    1        6.698  -3.348  -0.729  0.00  0.00    +0.292 HD
ENDBRANCH  16  30
BRANCH  17  32
ATOM     32  O   LIG    1        6.942  -0.842  -0.771  0.00  0.00    -0.503 OA
ATOM     33  H   LIG    1        7.555  -1.617  -0.820  0.00  0.00    +0.292 HD
ENDBRANCH  17  32
ENDBRANCH   6  12
BRANCH   1  34
ATOM     34  C   LIG    1       -5.427  -0.219   1.540  0.00  0.00    +0.017 C 
ATOM     35  C   LIG    1       -5.396   1.186   2.151  0.00  0.00    +0.012 C 
ATOM     36  C   LIG    1       -6.874  -0.627   1.481  0.00  0.00    +0.012 C 
ENDBRANCH   1  34
BRANCH   7  37
ATOM     37  O   LIG    1       -0.791  -0.012  -2.481  0.00  0.00    -0.506 OA
ATOM     38  H   LIG    1        0.178   0.017  -2.656  0.00  0.00    +0.292 HD
ENDBRANCH   7  37
BRANCH  10  39
ATOM     39  O   LIG    1       -5.759  -0.111  -3.301  0.00  0.00    -0.503 OA
ATOM     40  H   LIG    1       -6.718  -0.129  -3.460  0.00  0.00    +0.292 HD
ENDBRANCH  10  39
BRANCH   9  41
ATOM     41  C   LIG    1       -3.077  -0.041  -3.618  0.00  0.00    +0.227 C 
ATOM     42  O   LIG    1       -3.899  -0.039  -4.609  0.00  0.00    -0.223 OA
ENDBRANCH   9  41
BRANCH  11  43
ATOM     43  O   LIG    1       -6.978  -0.210  -0.876  0.00  0.00    -0.503 OA
ATOM     44  H   LIG    1       -7.533  -0.199  -1.691  0.00  0.00    +0.292 HD
ENDBRANCH  11  43
TORSDOF 11
