REMARK  Name = molecules/QBSGXIBYUQJHMJ-UHFFFAOYSA-N.pdb
REMARK                            x       y       z     vdW  Elec       q    Type
REMARK                         _______ _______ _______ _____ _____    ______ ____
ROOT
ATOM      1  C   LIG    1        0.427  -0.150   0.410  0.00  0.00    +0.252 C 
ATOM      2  O   LIG    1        0.045  -0.494   1.559  0.00  0.00    -0.270 OA
ATOM      3  N   LIG    1       -0.540   0.106  -0.551  0.00  0.00    -0.281 N 
ATOM      4  H   LIG    1       -0.284   0.402  -1.540  0.00  0.00    +0.155 HD
ENDROOT
BRANCH   1   5
ATOM      5  C   LIG    1        1.850  -0.054   0.200  0.00  0.00    +0.079 A 
ATOM      6  C   LIG    1        2.713  -0.344   1.270  0.00  0.00    +0.032 A 
ATOM      7  C   LIG    1        4.075  -0.293   1.209  0.00  0.00    +0.019 A 
ATOM      8 BR   LIG    1        5.183  -0.705   2.717  0.00  0.00    -0.050 Br
ATOM      9  C   LIG    1        4.618   0.074  -0.004  0.00  0.00    +0.019 A 
ATOM     10  C   LIG    1        3.806   0.365  -1.071  0.00  0.00    +0.047 A 
ATOM     11  C   LIG    1        2.423   0.306  -0.986  0.00  0.00    +0.129 A 
BRANCH  11  12
ATOM     12  O   LIG    1        1.688   0.618  -2.116  0.00  0.00    -0.506 OA
ATOM     13  H   LIG    1        2.164   0.874  -2.954  0.00  0.00    +0.292 HD
ENDBRANCH  11  12
ENDBRANCH   1   5
BRANCH   3  14
ATOM     14  C   LIG    1       -1.966   0.011  -0.370  0.00  0.00    +0.034 A 
ATOM     15  C   LIG    1       -2.567  -0.657   0.661  0.00  0.00    +0.025 A 
ATOM     16  C   LIG    1       -3.951  -0.748   0.799  0.00  0.00    +0.022 A 
ATOM     17  C   LIG    1       -4.740  -0.136  -0.146  0.00  0.00    +0.041 A 
ATOM     18 CL   LIG    1       -6.488  -0.205  -0.042  0.00  0.00    -0.084 Cl
ATOM     19  C   LIG    1       -4.194   0.555  -1.213  0.00  0.00    +0.022 A 
ATOM     20  C   LIG    1       -2.832   0.602  -1.285  0.00  0.00    +0.025 A 
ENDBRANCH   3  14
TORSDOF 3
