REMARK  Name = molecules/QCDYQQDYXPDABM-UHFFFAOYSA-N.pdb
REMARK                            x       y       z     vdW  Elec       q    Type
REMARK                         _______ _______ _______ _____ _____    ______ ____
ROOT
ATOM      1  C   LIG    1       -0.829  -1.092   0.281  0.00  0.00    +0.124 A 
ATOM      2  C   LIG    1       -1.298   0.219   0.416  0.00  0.00    +0.091 A 
ATOM      3  C   LIG    1       -0.508   1.297   0.091  0.00  0.00    +0.124 A 
ATOM      4  C   LIG    1        0.768   1.069  -0.375  0.00  0.00    +0.091 A 
ATOM      5  C   LIG    1        1.249  -0.238  -0.515  0.00  0.00    +0.124 A 
ATOM      6  C   LIG    1        0.450  -1.314  -0.187  0.00  0.00    +0.091 A 
ENDROOT
BRANCH   1   7
ATOM      7  O   LIG    1       -1.628  -2.173   0.609  0.00  0.00    -0.507 OA
ATOM      8  H   LIG    1       -2.219  -2.578  -0.112  0.00  0.00    +0.292 HD
ENDBRANCH   1   7
BRANCH   3   9
ATOM      9  O   LIG    1       -0.949   2.599   0.217  0.00  0.00    -0.507 OA
ATOM     10  H   LIG    1       -0.856   3.175   1.026  0.00  0.00    +0.292 HD
ENDBRANCH   3   9
BRANCH   5  11
ATOM     11  O   LIG    1        2.534  -0.419  -0.987  0.00  0.00    -0.507 OA
ATOM     12  H   LIG    1        3.279  -0.455  -0.286  0.00  0.00    +0.292 HD
ENDBRANCH   5  11
TORSDOF 3
