REMARK  Name = molecules/QCGUSIANLFXSGE-GFCCVEGCSA-N.pdb
REMARK                            x       y       z     vdW  Elec       q    Type
REMARK                         _______ _______ _______ _____ _____    ______ ____
ROOT
ATOM      1  C   LIG    1        1.056  -0.610   0.360  0.00  0.00    +0.019 A 
ATOM      2  C   LIG    1        0.424  -0.779   1.566  0.00  0.00    +0.133 A 
ATOM      3  F   LIG    1        1.180  -0.924   2.689  0.00  0.00    -0.205 F 
ATOM      4  C   LIG    1       -0.952  -0.801   1.631  0.00  0.00    +0.062 A 
ATOM      5  C   LIG    1       -1.775  -0.654   0.508  0.00  0.00    +0.042 A 
ATOM      6  C   LIG    1       -1.110  -0.487  -0.696  0.00  0.00    +0.024 A 
ATOM      7  C   LIG    1        0.262  -0.462  -0.793  0.00  0.00    +0.013 A 
ENDROOT
BRANCH   1   9
ATOM      8  C   LIG    1        3.139  -1.277  -0.714  0.00  0.00    +0.012 A 
ATOM      9  C   LIG    1        2.503  -0.526   0.247  0.00  0.00    +0.003 A 
ATOM     10  C   LIG    1        3.262   0.318   1.022  0.00  0.00    +0.120 A 
ATOM     11  N   LIG    1        4.606   0.422   0.855  0.00  0.00    -0.251 NA
ATOM     12  C   LIG    1        5.262  -0.296  -0.078  0.00  0.00    +0.111 A 
ATOM     13  C   LIG    1        4.510  -1.152  -0.862  0.00  0.00    +0.032 A 
BRANCH  12  14
ATOM     14  C   LIG    1        6.692  -0.157  -0.287  0.00  0.00    +0.223 A 
ATOM     15  N   LIG    1        7.573   0.660   0.322  0.00  0.00    -0.129 NA
ATOM     16  N   LIG    1        8.793   0.513  -0.165  0.00  0.00    -0.166 N 
ATOM     17  C   LIG    1       10.024   1.214   0.219  0.00  0.00    +0.199 C 
ATOM     18  N   LIG    1        8.694  -0.414  -1.103  0.00  0.00    -0.046 NA
ATOM     19  N   LIG    1        7.424  -0.839  -1.195  0.00  0.00    -0.106 NA
ENDBRANCH  12  14
ENDBRANCH   1   9
BRANCH   5  20
ATOM     20  N   LIG    1       -3.188  -0.647   0.596  0.00  0.00    -0.234 N 
ATOM     21  C   LIG    1       -3.913   0.089   1.570  0.00  0.00    +0.408 C 
ATOM     22  O   LIG    1       -3.621   1.161   2.182  0.00  0.00    -0.226 OA
ATOM     23  O   LIG    1       -5.131  -0.579   1.814  0.00  0.00    -0.443 OA
ATOM     24  C   LIG    1       -5.470  -1.169   0.559  0.00  0.00    +0.222 C 
ATOM     25  C   LIG    1       -4.192  -1.302  -0.210  0.00  0.00    +0.164 C 
BRANCH  24  26
ATOM     26  C   LIG    1       -6.476  -0.256  -0.105  0.00  0.00    +0.218 C 
BRANCH  26  27
ATOM     27  O   LIG    1       -5.935   1.007  -0.286  0.00  0.00    -0.283 OA
BRANCH  27  28
ATOM     28  P   LIG    1       -7.028   2.056  -1.025  0.00  0.00    +0.472 P 
ATOM     29  O   LIG    1       -7.420   1.562  -2.403  0.00  0.00    -0.228 OA
BRANCH  28  30
ATOM     30  O   LIG    1       -8.437   2.058  -0.079  0.00  0.00    -0.303 OA
ATOM     31  H   LIG    1       -8.974   1.244  -0.193  0.00  0.00    +0.222 HD
ENDBRANCH  28  30
BRANCH  28  32
ATOM     32  O   LIG    1       -6.367   3.617  -1.108  0.00  0.00    -0.303 OA
ATOM     33  H   LIG    1       -5.879   3.783  -0.240  0.00  0.00    +0.222 HD
ENDBRANCH  28  32
ENDBRANCH  27  28
ENDBRANCH  26  27
ENDBRANCH  24  26
ENDBRANCH   5  20
TORSDOF 8
