REMARK  Name = molecules/QCHFTSOMWOSFHM-WPRPVWTQSA-N.pdb
REMARK                            x       y       z     vdW  Elec       q    Type
REMARK                         _______ _______ _______ _____ _____    ______ ____
ROOT
ATOM      1  C   LIG    1        0.335  -0.628  -0.334  0.00  0.00    +0.046 C 
ATOM      2  C   LIG    1        1.802  -0.204  -0.452  0.00  0.00    +0.104 C 
ATOM      3  C   LIG    1        1.641   1.214  -0.782  0.00  0.00    +0.311 C 
ATOM      4  O   LIG    1        2.420   2.178  -0.601  0.00  0.00    -0.251 OA
ATOM      5  O   LIG    1        0.378   1.365  -1.383  0.00  0.00    -0.464 OA
ATOM      6  C   LIG    1       -0.202   0.081  -1.552  0.00  0.00    +0.236 C 
ENDROOT
BRANCH   2   7
ATOM      7  C   LIG    1        2.605  -0.486   0.766  0.00  0.00    +0.012 C 
ATOM      8  C   LIG    1        4.028   0.002   0.455  0.00  0.00    +0.004 C 
ENDBRANCH   2   7
BRANCH   1   9
ATOM      9  C   LIG    1       -0.277  -0.044   0.902  0.00  0.00    +0.062 C 
BRANCH   9  10
ATOM     10  C   LIG    1       -1.694  -0.439   1.032  0.00  0.00    +0.038 A 
ATOM     11  C   LIG    1       -2.083  -1.659   1.596  0.00  0.00    +0.133 A 
ATOM     12  N   LIG    1       -3.421  -1.721   1.544  0.00  0.00    -0.244 NA
ATOM     13  C   LIG    1       -3.908  -0.606   0.978  0.00  0.00    +0.199 A 
ATOM     14  N   LIG    1       -2.825   0.163   0.674  0.00  0.00    -0.337 N 
ATOM     15  C   LIG    1       -2.938   1.468   0.064  0.00  0.00    +0.150 C 
ENDBRANCH   9  10
ENDBRANCH   1   9
TORSDOF 3
