REMARK  Name = molecules/QCUPYFTWJOZAOB-HYXAFXHYSA-N.pdb
REMARK                            x       y       z     vdW  Elec       q    Type
REMARK                         _______ _______ _______ _____ _____    ______ ____
ROOT
ATOM      1  C   LIG    1        0.795   0.050  -0.173  0.00  0.00    +0.247 C 
ATOM      2  N   LIG    1        1.544  -1.062   0.276  0.00  0.00    -0.237 N 
ATOM      3  H   LIG    1        1.069  -1.861   0.780  0.00  0.00    +0.159 HD
ATOM      4  C   LIG    1        2.931  -1.103   0.050  0.00  0.00    +0.304 C 
ATOM      5  O   LIG    1        3.578  -2.089   0.451  0.00  0.00    -0.253 OA
ATOM      6  N   LIG    1        3.567  -0.039  -0.621  0.00  0.00    -0.313 N 
ATOM      7  H   LIG    1        4.214   0.595  -0.101  0.00  0.00    +0.146 HD
ATOM      8  H   LIG    1        3.435   0.171  -1.635  0.00  0.00    +0.146 HD
ATOM      9  O   LIG    1        1.340   1.000  -0.767  0.00  0.00    -0.270 OA
ENDROOT
BRANCH   1  10
ATOM     10  C   LIG    1       -0.622   0.073   0.068  0.00  0.00    +0.010 C 
ATOM     11  C   LIG    1       -1.353   1.073  -0.325  0.00  0.00    -0.022 C 
ATOM     12  C   LIG    1       -0.830   2.265  -1.043  0.00  0.00    +0.035 C 
BRANCH  10  14
ATOM     13  C   LIG    1       -2.725  -0.914   0.961  0.00  0.00    +0.009 C 
ATOM     14  C   LIG    1       -1.247  -1.073   0.780  0.00  0.00    +0.036 C 
ENDBRANCH  10  14
ENDBRANCH   1  10
TORSDOF 2
