REMARK  Name = molecules/QCWJONLQSHEGEJ-UHFFFAOYSA-N.pdb
REMARK                            x       y       z     vdW  Elec       q    Type
REMARK                         _______ _______ _______ _____ _____    ______ ____
ROOT
ATOM      1  C   LIG    1       -0.652   0.784   1.445  0.00  0.00    +0.035 C 
ENDROOT
BRANCH   1   2
ATOM      2  P   LIG    1       -1.338   0.179  -0.133  0.00  0.00    -0.101 P 
BRANCH   2   3
ATOM      3  C   LIG    1       -1.986   1.638  -1.086  0.00  0.00    +0.058 C 
BRANCH   3   4
ATOM      4  C   LIG    1       -3.513   1.613  -1.083  0.00  0.00    +0.164 C 
BRANCH   4   5
ATOM      5  O   LIG    1       -4.027   2.691  -1.788  0.00  0.00    -0.380 OA
BRANCH   5   6
ATOM      6  C   LIG    1       -5.418   2.684  -1.796  0.00  0.00    +0.156 C 
ATOM      7  C   LIG    1       -5.990   3.846  -2.555  0.00  0.00    +0.034 C 
ENDBRANCH   5   6
ENDBRANCH   4   5
ENDBRANCH   3   4
ENDBRANCH   2   3
BRANCH   2   8
ATOM      8  C   LIG    1       -2.685  -1.044   0.033  0.00  0.00    +0.058 C 
BRANCH   8   9
ATOM      9  C   LIG    1       -2.674  -1.793   1.337  0.00  0.00    +0.164 C 
BRANCH   9  10
ATOM     10  O   LIG    1       -3.694  -2.708   1.452  0.00  0.00    -0.380 OA
BRANCH  10  11
ATOM     11  C   LIG    1       -3.718  -3.701   0.505  0.00  0.00    +0.156 C 
ATOM     12  C   LIG    1       -4.918  -4.591   0.830  0.00  0.00    +0.034 C 
ENDBRANCH  10  11
ENDBRANCH   9  10
ENDBRANCH   8   9
ENDBRANCH   2   8
ENDBRANCH   1   2
BRANCH   1  13
ATOM     13  C   LIG    1        0.516  -0.008   1.959  0.00  0.00    +0.035 C 
BRANCH  13  14
ATOM     14  P   LIG    1        1.950  -0.051   0.851  0.00  0.00    -0.101 P 
BRANCH  14  15
ATOM     15  C   LIG    1        2.179  -1.616  -0.069  0.00  0.00    +0.058 C 
BRANCH  15  16
ATOM     16  C   LIG    1        3.250  -1.409  -1.116  0.00  0.00    +0.164 C 
BRANCH  16  17
ATOM     17  O   LIG    1        3.514  -2.512  -1.872  0.00  0.00    -0.380 OA
BRANCH  17  18
ATOM     18  C   LIG    1        3.949  -3.614  -1.192  0.00  0.00    +0.156 C 
ATOM     19  C   LIG    1        5.231  -3.399  -0.427  0.00  0.00    +0.034 C 
ENDBRANCH  17  18
ENDBRANCH  16  17
ENDBRANCH  15  16
ENDBRANCH  14  15
BRANCH  14  20
ATOM     20  C   LIG    1        3.493   0.646   1.537  0.00  0.00    +0.058 C 
BRANCH  20  21
ATOM     21  C   LIG    1        3.659   2.097   1.147  0.00  0.00    +0.164 C 
BRANCH  21  22
ATOM     22  O   LIG    1        4.817   2.651   1.651  0.00  0.00    -0.380 OA
BRANCH  22  23
ATOM     23  C   LIG    1        4.855   3.986   1.223  0.00  0.00    +0.156 C 
ATOM     24  C   LIG    1        4.855   3.979  -0.297  0.00  0.00    +0.034 C 
ENDBRANCH  22  23
ENDBRANCH  21  22
ENDBRANCH  20  21
ENDBRANCH  14  20
ENDBRANCH  13  14
ENDBRANCH   1  13
TORSDOF 19
