REMARK  Name = molecules/QDCILXFPWMMNQY-QHPYGSKZSA-N.pdb
REMARK                            x       y       z     vdW  Elec       q    Type
REMARK                         _______ _______ _______ _____ _____    ______ ____
ROOT
ATOM      1  N   LIG    1       -0.863  -1.169   0.078  0.00  0.00    +0.385 N 
ATOM      2  C   LIG    1        0.234  -1.875   0.716  0.00  0.00    -0.061 C 
ATOM      3  C   LIG    1        1.068  -0.889   1.481  0.00  0.00    +0.030 C 
ATOM      4  C   LIG    1        1.632   0.211   0.606  0.00  0.00    +0.173 C 
ATOM      5  C   LIG    1        0.696   0.639  -0.480  0.00  0.00    +0.030 C 
ATOM      6  C   LIG    1        0.979  -2.444  -0.449  0.00  0.00    -0.016 C 
ATOM      7  C   LIG    1        0.701  -1.522  -1.595  0.00  0.00    -0.016 C 
ATOM      8  C   LIG    1       -1.777  -2.121  -0.481  0.00  0.00    -0.091 C 
ATOM      9  C   LIG    1       -0.207  -0.455  -0.967  0.00  0.00    -0.061 C 
ENDROOT
BRANCH   1  10
ATOM     10  C   LIG    1       -1.498  -0.356   1.065  0.00  0.00    -0.039 C 
BRANCH  10  11
ATOM     11  C   LIG    1       -2.898  -0.017   0.772  0.00  0.00    -0.063 A 
ATOM     12  C   LIG    1       -3.904  -0.842   1.209  0.00  0.00    +0.002 A 
ATOM     13  C   LIG    1       -5.204  -0.531   0.940  0.00  0.00    +0.009 A 
ATOM     14  C   LIG    1       -5.509   0.606   0.231  0.00  0.00    -0.018 A 
ATOM     15  C   LIG    1       -4.519   1.478  -0.236  0.00  0.00    +0.009 A 
ATOM     16  C   LIG    1       -3.227   1.113   0.066  0.00  0.00    +0.002 A 
BRANCH  14  17
ATOM     17  C   LIG    1       -6.912   0.895  -0.031  0.00  0.00    -0.018 A 
ATOM     18  C   LIG    1       -7.895   0.512   0.854  0.00  0.00    +0.008 A 
ATOM     19  C   LIG    1       -9.238   0.797   0.588  0.00  0.00    +0.001 A 
ATOM     20  C   LIG    1       -9.559   1.464  -0.567  0.00  0.00    +0.000 A 
ATOM     21  C   LIG    1       -8.589   1.863  -1.478  0.00  0.00    +0.001 A 
ATOM     22  C   LIG    1       -7.266   1.561  -1.178  0.00  0.00    +0.008 A 
ENDBRANCH  14  17
ENDBRANCH  10  11
ENDBRANCH   1  10
BRANCH   4  23
ATOM     23  O   LIG    1        2.877  -0.247   0.133  0.00  0.00    -0.461 OA
BRANCH  23  24
ATOM     24  C   LIG    1        4.092   0.323   0.465  0.00  0.00    +0.317 C 
ATOM     25  O   LIG    1        4.071   1.309   1.236  0.00  0.00    -0.250 OA
BRANCH  24  26
ATOM     26  C   LIG    1        5.309  -0.286  -0.123  0.00  0.00    +0.153 C 
BRANCH  26  27
ATOM     27  C   LIG    1        6.543   0.365   0.273  0.00  0.00    -0.032 A 
ATOM     28  C   LIG    1        7.497  -0.317   0.989  0.00  0.00    +0.004 A 
ATOM     29  C   LIG    1        8.692   0.309   1.373  0.00  0.00    +0.000 A 
ATOM     30  C   LIG    1        8.915   1.628   1.029  0.00  0.00    +0.000 A 
ATOM     31  C   LIG    1        7.959   2.300   0.316  0.00  0.00    +0.000 A 
ATOM     32  C   LIG    1        6.778   1.680  -0.064  0.00  0.00    +0.004 A 
ENDBRANCH  26  27
BRANCH  26  33
ATOM     33  C   LIG    1        5.154  -0.405  -1.625  0.00  0.00    +0.175 C 
BRANCH  33  34
ATOM     34  O   LIG    1        4.961   0.825  -2.228  0.00  0.00    -0.394 OA
ATOM     35  H   LIG    1        4.228   0.749  -2.911  0.00  0.00    +0.209 HD
ENDBRANCH  33  34
ENDBRANCH  26  33
ENDBRANCH  24  26
ENDBRANCH  23  24
ENDBRANCH   4  23
TORSDOF 9
