REMARK  Name = molecules/QDGZDCVAUDNJFG-FXQIFTODSA-N.pdb
REMARK                            x       y       z     vdW  Elec       q    Type
REMARK                         _______ _______ _______ _____ _____    ______ ____
ROOT
ATOM      1  C   LIG    1        3.746  -0.168   0.919  0.00  0.00    +0.195 A 
ATOM      2  N   LIG    1        2.417   0.110   0.793  0.00  0.00    -0.196 NA
ATOM      3  C   LIG    1        1.825   0.292  -0.401  0.00  0.00    +0.170 A 
ATOM      4  N   LIG    1        0.592   0.565  -0.835  0.00  0.00    -0.308 N 
ATOM      5  C   LIG    1        0.600   0.632  -2.175  0.00  0.00    +0.202 A 
ATOM      6  N   LIG    1        1.853   0.397  -2.585  0.00  0.00    -0.229 NA
ATOM      7  C   LIG    1        2.642   0.182  -1.526  0.00  0.00    +0.172 A 
ATOM      8  C   LIG    1        3.967  -0.095  -1.409  0.00  0.00    +0.280 A 
ATOM      9  O   LIG    1        4.691  -0.191  -2.433  0.00  0.00    -0.265 OA
ATOM     10  N   LIG    1        4.500  -0.266  -0.189  0.00  0.00    -0.293 N 
ATOM     11  H   LIG    1        5.518  -0.476  -0.135  0.00  0.00    +0.172 HD
ENDROOT
BRANCH   4  12
ATOM     12  C   LIG    1       -0.561   0.760  -0.019  0.00  0.00    +0.118 C 
ATOM     13  C   LIG    1       -1.159  -0.522   0.453  0.00  0.00    -0.046 C 
ATOM     14  C   LIG    1       -2.568  -0.196   0.796  0.00  0.00    +0.070 C 
ATOM     15  C   LIG    1       -2.870   1.133   0.201  0.00  0.00    +0.126 C 
ATOM     16  C   LIG    1       -0.586  -1.707   0.554  0.00  0.00    +0.010 C 
ATOM     17  C   LIG    1       -1.722   1.368  -0.785  0.00  0.00    +0.061 C 
BRANCH  15  18
ATOM     18  O   LIG    1       -2.780   2.143   1.158  0.00  0.00    -0.391 OA
ATOM     19  H   LIG    1       -3.081   2.990   0.715  0.00  0.00    +0.210 HD
ENDBRANCH  15  18
BRANCH  14  20
ATOM     20  C   LIG    1       -3.520  -1.281   0.361  0.00  0.00    +0.166 C 
BRANCH  20  21
ATOM     21  O   LIG    1       -3.519  -1.481  -1.002  0.00  0.00    -0.394 OA
ATOM     22  H   LIG    1       -4.385  -1.861  -1.316  0.00  0.00    +0.209 HD
ENDBRANCH  20  21
ENDBRANCH  14  20
ENDBRANCH   4  12
BRANCH   1  23
ATOM     23  N   LIG    1        4.343  -0.354   2.192  0.00  0.00    -0.329 N 
ATOM     24  H   LIG    1        4.307   0.425   2.874  0.00  0.00    +0.145 HD
ATOM     25  H   LIG    1        4.813  -1.235   2.466  0.00  0.00    +0.145 HD
ENDBRANCH   1  23
TORSDOF 5
