REMARK  Name = molecules/QDIYJDPBMZUZEH-UHFFFAOYSA-O.pdb
REMARK                            x       y       z     vdW  Elec       q    Type
REMARK                         _______ _______ _______ _____ _____    ______ ____
ROOT
ATOM      1  C   LIG    1        1.431  -0.122  -0.458  0.00  0.00    +0.095 C 
ENDROOT
BRANCH   1   2
ATOM      2  C   LIG    1        1.637   1.219   0.138  0.00  0.00    -0.028 A 
ATOM      3  C   LIG    1        2.327   1.339   1.330  0.00  0.00    +0.005 A 
ATOM      4  C   LIG    1        2.514   2.570   1.899  0.00  0.00    +0.000 A 
ATOM      5  C   LIG    1        2.018   3.703   1.293  0.00  0.00    +0.000 A 
ATOM      6  C   LIG    1        1.328   3.634   0.114  0.00  0.00    +0.000 A 
ATOM      7  C   LIG    1        1.155   2.369  -0.438  0.00  0.00    +0.005 A 
ENDBRANCH   1   2
BRANCH   1   8
ATOM      8  C   LIG    1        2.497  -1.071   0.024  0.00  0.00    -0.028 A 
ATOM      9  C   LIG    1        2.115  -2.113   0.827  0.00  0.00    +0.005 A 
ATOM     10  C   LIG    1        3.053  -3.027   1.312  0.00  0.00    +0.000 A 
ATOM     11  C   LIG    1        4.364  -2.849   0.962  0.00  0.00    +0.000 A 
ATOM     12  C   LIG    1        4.758  -1.806   0.157  0.00  0.00    +0.000 A 
ATOM     13  C   LIG    1        3.817  -0.910  -0.316  0.00  0.00    +0.005 A 
ENDBRANCH   1   8
BRANCH   1  14
ATOM     14  C   LIG    1        1.694  -0.019  -1.930  0.00  0.00    +0.225 C 
ATOM     15  O   LIG    1        2.106   1.042  -2.437  0.00  0.00    -0.275 OA
ATOM     16  N   LIG    1        1.455  -1.179  -2.721  0.00  0.00    -0.328 N 
ATOM     17  H   LIG    1        1.558  -2.151  -2.353  0.00  0.00    +0.145 HD
ATOM     18  H   LIG    1        1.166  -1.055  -3.703  0.00  0.00    +0.145 HD
ENDBRANCH   1  14
BRANCH   1  19
ATOM     19  C   LIG    1        0.103  -0.736  -0.181  0.00  0.00    +0.007 C 
BRANCH  19  20
ATOM     20  C   LIG    1       -1.052   0.046  -0.769  0.00  0.00    -0.074 C 
BRANCH  20  21
ATOM     21  N   LIG    1       -2.322  -0.577  -0.494  0.00  0.00    +0.378 N 
ATOM     22  C   LIG    1       -2.854  -0.185   0.799  0.00  0.00    -0.075 C 
ATOM     23  C   LIG    1       -3.309   1.236   0.843  0.00  0.00    -0.018 C 
ATOM     24  C   LIG    1       -4.129   1.643  -0.349  0.00  0.00    -0.004 C 
ATOM     25  C   LIG    1       -4.490   0.406  -1.139  0.00  0.00    -0.018 C 
ATOM     26  C   LIG    1       -2.227  -2.030  -0.448  0.00  0.00    -0.092 C 
ATOM     27  C   LIG    1       -3.211  -0.246  -1.580  0.00  0.00    -0.075 C 
ENDBRANCH  20  21
ENDBRANCH  19  20
ENDBRANCH   1  19
TORSDOF 6
