REMARK  Name = molecules/QDMORDTWFMWOFA-XMMPIXPASA-N.pdb
REMARK                            x       y       z     vdW  Elec       q    Type
REMARK                         _______ _______ _______ _____ _____    ______ ____
ROOT
ATOM      1  C   LIG    1        0.906  -0.364   0.530  0.00  0.00    +0.028 C 
ENDROOT
BRANCH   1   2
ATOM      2  C   LIG    1        1.370  -0.204   1.933  0.00  0.00    -0.044 A 
ATOM      3  C   LIG    1        1.430  -1.285   2.808  0.00  0.00    +0.004 A 
ATOM      4  C   LIG    1        1.859  -1.156   4.105  0.00  0.00    +0.000 A 
ATOM      5  C   LIG    1        2.252   0.060   4.597  0.00  0.00    +0.000 A 
ATOM      6  C   LIG    1        2.204   1.162   3.745  0.00  0.00    +0.000 A 
ATOM      7  C   LIG    1        1.767   1.010   2.436  0.00  0.00    +0.004 A 
ENDBRANCH   1   2
BRANCH   1   8
ATOM      8  C   LIG    1        1.819   0.267  -0.415  0.00  0.00    -0.003 C 
ATOM      9  C   LIG    1        3.246   0.029   0.132  0.00  0.00    +0.004 C 
ATOM     10  C   LIG    1        3.954  -0.964  -0.769  0.00  0.00    +0.000 C 
ATOM     11  C   LIG    1        4.268  -0.131  -2.005  0.00  0.00    +0.000 C 
ATOM     12  C   LIG    1        2.974   0.103  -2.684  0.00  0.00    +0.000 C 
ATOM     13  C   LIG    1        1.735   0.039  -1.851  0.00  0.00    +0.004 C 
ENDBRANCH   1   8
BRANCH   1  14
ATOM     14  C   LIG    1       -0.594  -0.125   0.425  0.00  0.00    +0.025 C 
BRANCH  14  15
ATOM     15  C   LIG    1       -0.889   1.312   0.691  0.00  0.00    +0.089 C 
BRANCH  15  16
ATOM     16  N   LIG    1       -2.154   1.845   0.680  0.00  0.00    -0.303 NA
BRANCH  16  17
ATOM     17  C   LIG    1       -2.135   3.295   0.975  0.00  0.00    +0.081 C 
ATOM     18  C   LIG    1       -1.508   4.062  -0.135  0.00  0.00    +0.020 C 
ENDBRANCH  16  17
BRANCH  16  19
ATOM     19  C   LIG    1       -3.229   1.473  -0.118  0.00  0.00    +0.081 C 
ATOM     20  C   LIG    1       -4.427   2.472   0.039  0.00  0.00    +0.020 C 
ENDBRANCH  16  19
ENDBRANCH  15  16
ENDBRANCH  14  15
BRANCH  14  21
ATOM     21  C   LIG    1       -1.156  -0.673  -0.858  0.00  0.00    +0.089 C 
BRANCH  21  22
ATOM     22  N   LIG    1       -0.883  -2.116  -0.929  0.00  0.00    -0.303 NA
BRANCH  22  23
ATOM     23  C   LIG    1       -1.393  -2.838   0.197  0.00  0.00    +0.081 C 
ATOM     24  C   LIG    1       -2.906  -2.888   0.276  0.00  0.00    +0.020 C 
ENDBRANCH  22  23
BRANCH  22  25
ATOM     25  C   LIG    1       -1.407  -2.722  -2.114  0.00  0.00    +0.081 C 
ATOM     26  C   LIG    1       -0.735  -2.354  -3.396  0.00  0.00    +0.020 C 
ENDBRANCH  22  25
ENDBRANCH  21  22
ENDBRANCH  14  21
ENDBRANCH   1  14
TORSDOF 11
