REMARK  Name = molecules/QDUIJCOKQCCXQY-WHJQOFBOSA-N.pdb
REMARK                            x       y       z     vdW  Elec       q    Type
REMARK                         _______ _______ _______ _____ _____    ______ ____
ROOT
ATOM      1  CA  LIG    1       -0.671   0.705  -0.483  0.00  0.00    +0.128 C 
ATOM      2  C   LIG    1       -1.572   0.300   0.369  0.00  0.00    -0.012 C 
ATOM      3  C   LIG    1       -1.904  -1.157   0.496  0.00  0.00    +0.105 C 
ATOM      4  S   LIG    1       -0.301  -2.052   0.378  0.00  0.00    -0.131 S 
ATOM      5  C   LIG    1        0.093  -1.606  -1.328  0.00  0.00    +0.169 C 
ATOM      6  CA  LIG    1        1.505  -1.489  -1.738  0.00  0.00    +0.191 C 
ATOM      7  C   LIG    1        0.908  -0.291  -2.468  0.00  0.00    +0.244 C 
ATOM      8  O   LIG    1        1.090   0.306  -3.537  0.00  0.00    -0.273 OA
ATOM      9  N   LIG    1        0.042  -0.164  -1.364  0.00  0.00    -0.249 N 
ENDROOT
BRANCH   6  10
ATOM     10  N   LIG    1        2.467  -1.120  -0.748  0.00  0.00    -0.296 N 
ATOM     11  H   LIG    1        2.186  -0.418  -0.047  0.00  0.00    +0.150 HD
ATOM     12  C   LIG    1        3.745  -1.689  -0.726  0.00  0.00    +0.270 C 
ATOM     13  O   LIG    1        3.986  -2.550  -1.643  0.00  0.00    -0.268 OA
BRANCH  12  14
ATOM     14  C   LIG    1        4.790  -1.398   0.215  0.00  0.00    +0.208 C 
ATOM     15  N   LIG    1        5.925  -2.050   0.056  0.00  0.00    -0.076 NA
BRANCH  14  16
ATOM     16  C   LIG    1        4.690  -0.437   1.335  0.00  0.00    +0.197 A 
ATOM     17  N   LIG    1        5.731  -0.237   2.162  0.00  0.00    -0.185 NA
ATOM     18  S   LIG    1        5.145   0.915   3.241  0.00  0.00    +0.049 S 
ATOM     19  C   LIG    1        3.585   1.093   2.583  0.00  0.00    +0.176 A 
ATOM     20  N   LIG    1        3.615   0.255   1.577  0.00  0.00    -0.202 NA
BRANCH  19  21
ATOM     21  N   LIG    1        2.456   1.905   2.942  0.00  0.00    -0.336 N 
ATOM     22  H   LIG    1        1.980   1.779   3.840  0.00  0.00    +0.144 HD
ATOM     23  H   LIG    1        2.101   2.650   2.275  0.00  0.00    +0.144 HD
ENDBRANCH  19  21
ENDBRANCH  14  16
BRANCH  15  24
ATOM     24  O   LIG    1        6.121  -2.962  -0.949  0.00  0.00    -0.396 OA
ATOM     25  C   LIG    1        6.822  -4.158  -0.578  0.00  0.00    +0.313 C 
ENDBRANCH  15  24
ENDBRANCH  12  14
ENDBRANCH   6  10
BRANCH   1  26
ATOM     26  C   LIG    1       -0.373   2.120  -0.575  0.00  0.00    +0.401 C 
ATOM     27  OXT LIG    1       -0.859   3.009   0.099  0.00  0.00    -0.239 OA
ATOM     28  O   LIG    1        0.570   2.546  -1.532  0.00  0.00    -0.239 OA
ENDBRANCH   1  26
BRANCH   2  29
ATOM     29  C   LIG    1       -2.370   1.136   1.290  0.00  0.00    +0.157 C 
BRANCH  29  30
ATOM     30  N   LIG    1       -3.818   0.924   1.078  0.00  0.00    -0.327 N 
ATOM     31  C   LIG    1       -4.605   0.065   1.747  0.00  0.00    +0.107 A 
ATOM     32  C   LIG    1       -5.871   0.190   1.269  0.00  0.00    +0.132 A 
ATOM     33  N   LIG    1       -5.853   1.133   0.303  0.00  0.00    -0.223 N 
ATOM     34  N   LIG    1       -6.783   1.643  -0.481  0.00  0.00    -0.177 NA
ATOM     35  C   LIG    1       -6.564   2.583  -1.391  0.00  0.00    +0.114 C 
ATOM     36  C   LIG    1       -5.290   3.075  -1.547  0.00  0.00    +0.070 C 
ATOM     37  C   LIG    1       -4.293   2.558  -0.739  0.00  0.00    +0.029 C 
ATOM     38  C   LIG    1       -4.566   1.578   0.198  0.00  0.00    +0.132 A 
ENDBRANCH  29  30
ENDBRANCH   2  29
TORSDOF 8
