REMARK  Name = molecules/QEEJLLNYQOBRRM-KSHGRFHLSA-N.pdb
REMARK                            x       y       z     vdW  Elec       q    Type
REMARK                         _______ _______ _______ _____ _____    ______ ____
ROOT
ATOM      1  N   LIG    1       19.680   8.574   0.000  0.00  0.00    -0.135 NA
ATOM      2  CA  LIG    1       18.930   9.873   0.000  0.00  0.00    +0.149 C 
ENDROOT
BRANCH   2   3
ATOM      3  C   LIG    1       20.229  10.623   0.000  0.00  0.00    +0.225 C 
ATOM      4  O   LIG    1       21.528  11.373   0.000  0.00  0.00    -0.233 OA
ENDBRANCH   2   3
BRANCH   2   5
ATOM      5  C   LIG    1       17.631   9.123   0.000  0.00  0.00    +0.125 C 
ATOM      6  N   LIG    1       16.332   9.873   0.000  0.00  0.00    -0.130 NA
ENDBRANCH   2   5
TORSDOF 2
REMARK  Name = molecules/QEEJLLNYQOBRRM-KSHGRFHLSA-N.pdb
REMARK                            x       y       z     vdW  Elec       q    Type
REMARK                         _______ _______ _______ _____ _____    ______ ____
ROOT
ATOM      1  N   LIG    1       12.783  10.422   0.000  0.00  0.00    -0.250 NA
ATOM      2  C   LIG    1       12.623   9.062   0.000  0.00  0.00    +0.109 C 
ATOM      3  H   LIG    1       14.123  10.588   0.000  0.00  0.00    +0.141 HD
ENDROOT
TORSDOF 0
REMARK  Name = molecules/QEEJLLNYQOBRRM-KSHGRFHLSA-N.pdb
REMARK                            x       y       z     vdW  Elec       q    Type
REMARK                         _______ _______ _______ _____ _____    ______ ____
ROOT
ATOM      1  C   LIG    1        8.065  11.111   0.000  0.00  0.00    +0.088 C 
ENDROOT
BRANCH   1   2
ATOM      2  N   LIG    1        9.435  11.721   0.000  0.00  0.00    -0.252 NA
ATOM      3  H   LIG    1       10.117  12.067   0.000  0.00  0.00    +0.141 HD
ENDBRANCH   1   2
BRANCH   1   4
ATOM      4  C   LIG    1        7.061  12.225   0.000  0.00  0.00    +0.021 C 
BRANCH   4   5
ATOM      5  C   LIG    1        7.811  13.524   0.000  0.00  0.00    +0.002 C 
ATOM      6  C   LIG    1        9.278  13.213   0.000  0.00  0.00    +0.000 C 
ENDBRANCH   4   5
ENDBRANCH   1   4
TORSDOF 3
REMARK  Name = molecules/QEEJLLNYQOBRRM-KSHGRFHLSA-N.pdb
REMARK                            x       y       z     vdW  Elec       q    Type
REMARK                         _______ _______ _______ _____ _____    ______ ____
ROOT
ATOM      1  N   LIG    1       10.315   9.812   0.000  0.00  0.00    +0.038 NA
ATOM      2  O   LIG    1       10.927  10.197   0.000  0.00  0.00    -0.278 OA
ATOM      3  H   LIG    1       11.390   9.563   0.000  0.00  0.00    +0.240 HD
ENDROOT
TORSDOF 0
REMARK  Name = molecules/QEEJLLNYQOBRRM-KSHGRFHLSA-N.pdb
REMARK                            x       y       z     vdW  Elec       q    Type
REMARK                         _______ _______ _______ _____ _____    ______ ____
ROOT
ATOM      1  CA  LIG    1        9.348   1.701   0.000  0.00  0.00    +0.164 C 
ENDROOT
BRANCH   1   3
ATOM      2  C   LIG    1        9.348   4.299   0.000  0.00  0.00    +0.076 C 
ATOM      3  N   LIG    1        8.598   3.000   0.000  0.00  0.00    -0.277 NA
BRANCH   2   7
ATOM      4  N   LIG    1        9.897   6.348   0.000  0.00  0.00    -0.297 NA
ATOM      5  C   LIG    1        9.147   7.647   0.000  0.00  0.00    +0.066 C 
ATOM      6  C   LIG    1        7.848   6.897   0.000  0.00  0.00    +0.045 C 
ATOM      7  C   LIG    1        8.598   5.598   0.000  0.00  0.00    +0.110 C 
ATOM      8  H   LIG    1       11.032   7.016   0.000  0.00  0.00    +0.123 HD
BRANCH   5   9
ATOM      9  C   LIG    1        9.897   7.848   0.000  0.00  0.00    +0.001 C 
ATOM     10  C   LIG    1       10.446   8.397   0.000  0.00  0.00    -0.046 C 
ATOM     11  C   LIG    1       11.196   8.598   0.000  0.00  0.00    +0.040 C 
ENDBRANCH   5   9
ENDBRANCH   2   7
ENDBRANCH   1   3
BRANCH   1  12
ATOM     12  C   LIG    1       10.647   2.451   0.000  0.00  0.00    +0.217 C 
ATOM     13  O   LIG    1       11.946   3.201   0.000  0.00  0.00    -0.226 OA
ENDBRANCH   1  12
BRANCH   1  14
ATOM     14  C   LIG    1        8.049   0.951   0.000  0.00  0.00    +0.089 C 
BRANCH  14  15
ATOM     15  N   LIG    1        8.049  -0.549   0.000  0.00  0.00    -0.301 NA
ATOM     16  H   LIG    1        8.760  -0.393   0.000  0.00  0.00    +0.123 HD
BRANCH  15  17
ATOM     17  C   LIG    1        6.750  -1.299   0.000  0.00  0.00    +0.075 C 
BRANCH  17  18
ATOM     18  C   LIG    1        6.000   0.000   0.000  0.00  0.00    +0.015 C 
BRANCH  18  19
ATOM     19  C   LIG    1        5.250   1.299   0.000  0.00  0.00    -0.012 C 
ATOM     20  C   LIG    1        3.951   0.549   0.000  0.00  0.00    +0.007 C 
ATOM     21  C   LIG    1        4.500   2.598   0.000  0.00  0.00    +0.007 C 
ENDBRANCH  18  19
ENDBRANCH  17  18
ENDBRANCH  15  17
ENDBRANCH  14  15
ENDBRANCH   1  14
TORSDOF 9
REMARK  Name = molecules/QEEJLLNYQOBRRM-KSHGRFHLSA-N.pdb
REMARK                            x       y       z     vdW  Elec       q    Type
REMARK                         _______ _______ _______ _____ _____    ______ ____
ROOT
ATOM      1  N   LIG    1        6.750  -3.897   0.000  0.00  0.00    +0.000 NA
ENDROOT
TORSDOF 0
REMARK  Name = molecules/QEEJLLNYQOBRRM-KSHGRFHLSA-N.pdb
REMARK                            x       y       z     vdW  Elec       q    Type
REMARK                         _______ _______ _______ _____ _____    ______ ____
ROOT
ATOM      1  N   LIG    1        6.201  -7.446   0.000  0.00  0.00    +0.000 NA
ENDROOT
TORSDOF 0
REMARK  Name = molecules/QEEJLLNYQOBRRM-KSHGRFHLSA-N.pdb
REMARK                            x       y       z     vdW  Elec       q    Type
REMARK                         _______ _______ _______ _____ _____    ______ ____
ROOT
ATOM      1  N   LIG    1        4.902 -10.794   0.000  0.00  0.00    -0.246 NA
ATOM      2  H   LIG    1        4.701 -10.044   0.000  0.00  0.00    +0.141 HD
ENDROOT
BRANCH   1   3
ATOM      3  C   LIG    1        5.407 -11.420   0.000  0.00  0.00    +0.080 C 
ATOM      4  C   LIG    1        5.652 -12.093   0.000  0.00  0.00    +0.025 C 
ENDBRANCH   1   3
TORSDOF 1
REMARK  Name = molecules/QEEJLLNYQOBRRM-KSHGRFHLSA-N.pdb
REMARK                            x       y       z     vdW  Elec       q    Type
REMARK                         _______ _______ _______ _____ _____    ______ ____
ROOT
ATOM      1  N   LIG    1        4.353 -14.343   0.000  0.00  0.00    -0.163 NA
ATOM      2  H   LIG    1        5.002 -15.490   0.000  0.00  0.00    +0.163 HD
ENDROOT
TORSDOF 0
REMARK  Name = molecules/QEEJLLNYQOBRRM-KSHGRFHLSA-N.pdb
REMARK                            x       y       z     vdW  Elec       q    Type
REMARK                         _______ _______ _______ _____ _____    ______ ____
ROOT
ATOM      1  N   LIG    1        3.054 -12.495   0.000  0.00  0.00    -0.163 NA
ATOM      2  H   LIG    1        3.073 -13.135   0.000  0.00  0.00    +0.163 HD
ENDROOT
TORSDOF 0
REMARK  Name = molecules/QEEJLLNYQOBRRM-KSHGRFHLSA-N.pdb
REMARK                            x       y       z     vdW  Elec       q    Type
REMARK                         _______ _______ _______ _____ _____    ______ ____
ROOT
ATOM      1  N   LIG    1       -0.294 -11.196   0.000  0.00  0.00    -0.151 NA
ATOM      2  C   LIG    1       -0.642 -10.593   0.000  0.00  0.00    +0.096 C 
ATOM      3  C   LIG    1       -1.245 -10.245   0.000  0.00  0.00    +0.055 C 
ENDROOT
TORSDOF 0
REMARK  Name = molecules/QEEJLLNYQOBRRM-KSHGRFHLSA-N.pdb
REMARK                            x       y       z     vdW  Elec       q    Type
REMARK                         _______ _______ _______ _____ _____    ______ ____
ROOT
ATOM      1  N   LIG    1       -1.593 -14.544   0.000  0.00  0.00    +0.000 NA
ENDROOT
TORSDOF 0
REMARK  Name = molecules/QEEJLLNYQOBRRM-KSHGRFHLSA-N.pdb
REMARK                            x       y       z     vdW  Elec       q    Type
REMARK                         _______ _______ _______ _____ _____    ______ ____
ROOT
ATOM      1  N   LIG    1        1.755 -15.843   0.000  0.00  0.00    -0.250 NA
ATOM      2  C   LIG    1        1.755 -16.941   0.000  0.00  0.00    +0.109 C 
ATOM      3  H   LIG    1        0.935 -15.289   0.000  0.00  0.00    +0.141 HD
ENDROOT
TORSDOF 0
REMARK  Name = molecules/QEEJLLNYQOBRRM-KSHGRFHLSA-N.pdb
REMARK                            x       y       z     vdW  Elec       q    Type
REMARK                         _______ _______ _______ _____ _____    ______ ____
ROOT
ATOM      1  N   LIG    1        0.804 -13.794   0.000  0.00  0.00    +0.000 NA
ENDROOT
TORSDOF 0
REMARK  Name = molecules/QEEJLLNYQOBRRM-KSHGRFHLSA-N.pdb
REMARK                            x       y       z     vdW  Elec       q    Type
REMARK                         _______ _______ _______ _____ _____    ______ ____
ROOT
ATOM      1  N   LIG    1        1.353 -10.245   0.000  0.00  0.00    -0.273 NA
ATOM      2  H   LIG    1        0.741 -10.654   0.000  0.00  0.00    +0.137 HD
ATOM      3  H   LIG    1        0.890  -9.614   0.000  0.00  0.00    +0.137 HD
ENDROOT
TORSDOF 0
REMARK  Name = molecules/QEEJLLNYQOBRRM-KSHGRFHLSA-N.pdb
REMARK                            x       y       z     vdW  Elec       q    Type
REMARK                         _______ _______ _______ _____ _____    ______ ____
ROOT
ATOM      1  N   LIG    1        0.402  -8.196   0.000  0.00  0.00    -0.115 NA
ATOM      2  H   LIG    1       -0.356  -7.868   0.000  0.00  0.00    +0.176 HD
ENDROOT
BRANCH   1   3
ATOM      3  O   LIG    1        1.141  -7.748   0.000  0.00  0.00    -0.299 OA
ATOM      4  H   LIG    1        0.804  -7.098   0.000  0.00  0.00    +0.238 HD
ENDBRANCH   1   3
TORSDOF 1
REMARK  Name = molecules/QEEJLLNYQOBRRM-KSHGRFHLSA-N.pdb
REMARK                            x       y       z     vdW  Elec       q    Type
REMARK                         _______ _______ _______ _____ _____    ______ ____
ROOT
ATOM      1  N   LIG    1        0.951  -4.647   0.000  0.00  0.00    -0.163 NA
ATOM      2  H   LIG    1        1.234  -3.810   0.000  0.00  0.00    +0.163 HD
ENDROOT
TORSDOF 0
REMARK  Name = molecules/QEEJLLNYQOBRRM-KSHGRFHLSA-N.pdb
REMARK                            x       y       z     vdW  Elec       q    Type
REMARK                         _______ _______ _______ _____ _____    ______ ____
ROOT
ATOM      1  N   LIG    1        4.500  -5.196   0.000  0.00  0.00    -0.156 NA
ATOM      2  C   LIG    1        4.500  -4.098   0.000  0.00  0.00    +0.156 C 
ENDROOT
TORSDOF 0
REMARK  Name = molecules/QEEJLLNYQOBRRM-KSHGRFHLSA-N.pdb
REMARK                            x       y       z     vdW  Elec       q    Type
REMARK                         _______ _______ _______ _____ _____    ______ ____
ROOT
ATOM      1  N   LIG    1        3.951  -8.745   0.000  0.00  0.00    -0.244 NA
ATOM      2  C   LIG    1        4.902  -8.196   0.000  0.00  0.00    +0.103 C 
ATOM      3  H   LIG    1        3.017  -9.065   0.000  0.00  0.00    +0.141 HD
ENDROOT
TORSDOF 0
REMARK  Name = molecules/QEEJLLNYQOBRRM-KSHGRFHLSA-N.pdb
REMARK                            x       y       z     vdW  Elec       q    Type
REMARK                         _______ _______ _______ _____ _____    ______ ____
ROOT
ATOM      1  C   LIG    1        2.103  -6.348   0.000  0.00  0.00    +0.296 C 
ENDROOT
BRANCH   1   2
ATOM      2  N   LIG    1        2.652  -6.897   0.000  0.00  0.00    -0.204 NA
ATOM      3  H   LIG    1        3.145  -7.427   0.000  0.00  0.00    +0.145 HD
ENDBRANCH   1   2
BRANCH   1   4
ATOM      4  O   LIG    1        1.641  -5.830   0.000  0.00  0.00    -0.446 OA
BRANCH   4   5
ATOM      5  C   LIG    1        0.951  -6.147   0.000  0.00  0.00    +0.326 C 
ATOM      6  N   LIG    1        1.608  -6.696   0.000  0.00  0.00    -0.117 NA
ENDBRANCH   4   5
ENDBRANCH   1   4
TORSDOF 3
REMARK  Name = molecules/QEEJLLNYQOBRRM-KSHGRFHLSA-N.pdb
REMARK                            x       y       z     vdW  Elec       q    Type
REMARK                         _______ _______ _______ _____ _____    ______ ____
ROOT
ATOM      1  N   LIG    1       -0.696  -5.598   0.000  0.00  0.00    -0.163 NA
ATOM      2  H   LIG    1       -1.390  -5.818   0.000  0.00  0.00    +0.163 HD
ENDROOT
TORSDOF 0
REMARK  Name = molecules/QEEJLLNYQOBRRM-KSHGRFHLSA-N.pdb
REMARK                            x       y       z     vdW  Elec       q    Type
REMARK                         _______ _______ _______ _____ _____    ______ ____
ROOT
ATOM      1  N   LIG    1       -1.995  -8.946   0.000  0.00  0.00    -0.250 NA
ATOM      2  C   LIG    1       -2.196  -9.696   0.000  0.00  0.00    +0.109 C 
ATOM      3  H   LIG    1       -0.897  -8.946   0.000  0.00  0.00    +0.141 HD
ENDROOT
TORSDOF 0
REMARK  Name = molecules/QEEJLLNYQOBRRM-KSHGRFHLSA-N.pdb
REMARK                            x       y       z     vdW  Elec       q    Type
REMARK                         _______ _______ _______ _____ _____    ______ ____
ROOT
ATOM      1  N   LIG    1       -3.843 -10.245   0.000  0.00  0.00    +0.000 NA
ENDROOT
TORSDOF 0
REMARK  Name = molecules/QEEJLLNYQOBRRM-KSHGRFHLSA-N.pdb
REMARK                            x       y       z     vdW  Elec       q    Type
REMARK                         _______ _______ _______ _____ _____    ______ ____
ROOT
ATOM      1  N   LIG    1       -5.142 -13.593   0.000  0.00  0.00    -0.163 NA
ATOM      2  H   LIG    1       -5.855 -13.659   0.000  0.00  0.00    +0.163 HD
ENDROOT
TORSDOF 0
REMARK  Name = molecules/QEEJLLNYQOBRRM-KSHGRFHLSA-N.pdb
REMARK                            x       y       z     vdW  Elec       q    Type
REMARK                         _______ _______ _______ _____ _____    ______ ____
ROOT
ATOM      1  N   LIG    1       -3.093 -12.642   0.000  0.00  0.00    -0.163 NA
ATOM      2  H   LIG    1       -3.727 -12.783   0.000  0.00  0.00    +0.163 HD
ENDROOT
TORSDOF 0
REMARK  Name = molecules/QEEJLLNYQOBRRM-KSHGRFHLSA-N.pdb
REMARK                            x       y       z     vdW  Elec       q    Type
REMARK                         _______ _______ _______ _____ _____    ______ ____
ROOT
ATOM      1  N   LIG    1       -6.642 -13.191   0.000  0.00  0.00    -0.163 NA
ATOM      2  H   LIG    1       -6.946 -13.821   0.000  0.00  0.00    +0.163 HD
ENDROOT
TORSDOF 0
REMARK  Name = molecules/QEEJLLNYQOBRRM-KSHGRFHLSA-N.pdb
REMARK                            x       y       z     vdW  Elec       q    Type
REMARK                         _______ _______ _______ _____ _____    ______ ____
ROOT
ATOM      1  N   LIG    1       -6.093 -16.740   0.000  0.00  0.00    -0.245 NA
ATOM      2  H   LIG    1       -6.577 -17.834   0.000  0.00  0.00    +0.141 HD
ENDROOT
BRANCH   1   3
ATOM      3  C   LIG    1       -5.691 -15.642   0.000  0.00  0.00    +0.084 C 
ATOM      4  C   LIG    1       -6.441 -15.039   0.000  0.00  0.00    +0.020 C 
ENDBRANCH   1   3
TORSDOF 1
REMARK  Name = molecules/QEEJLLNYQOBRRM-KSHGRFHLSA-N.pdb
REMARK                            x       y       z     vdW  Elec       q    Type
REMARK                         _______ _______ _______ _____ _____    ______ ____
ROOT
ATOM      1  N   LIG    1       -2.544 -16.191   0.000  0.00  0.00    -0.246 NA
ATOM      2  H   LIG    1       -3.350 -15.971   0.000  0.00  0.00    +0.141 HD
ENDROOT
BRANCH   1   3
ATOM      3  C   LIG    1       -2.343 -15.441   0.000  0.00  0.00    +0.080 C 
ATOM      4  C   LIG    1       -1.794 -14.892   0.000  0.00  0.00    +0.025 C 
ENDBRANCH   1   3
TORSDOF 1
REMARK  Name = molecules/QEEJLLNYQOBRRM-KSHGRFHLSA-N.pdb
REMARK                            x       y       z     vdW  Elec       q    Type
REMARK                         _______ _______ _______ _____ _____    ______ ____
ROOT
ATOM      1  N   LIG    1        0.804 -14.892   0.000  0.00  0.00    -0.163 NA
ATOM      2  H   LIG    1        1.704 -15.308   0.000  0.00  0.00    +0.163 HD
ENDROOT
TORSDOF 0
REMARK  Name = molecules/QEEJLLNYQOBRRM-KSHGRFHLSA-N.pdb
REMARK                            x       y       z     vdW  Elec       q    Type
REMARK                         _______ _______ _______ _____ _____    ______ ____
ROOT
ATOM      1  N   LIG    1        2.103 -18.240   0.000  0.00  0.00    -0.344 NA
ATOM      2  H   LIG    1        2.468 -19.072   0.000  0.00  0.00    +0.115 HD
ATOM      3  H   LIG    1        1.169 -18.322   0.000  0.00  0.00    +0.115 HD
ATOM      4  H   LIG    1        3.009 -17.665   0.000  0.00  0.00    +0.115 HD
ENDROOT
TORSDOF 0
REMARK  Name = molecules/QEEJLLNYQOBRRM-KSHGRFHLSA-N.pdb
REMARK                            x       y       z     vdW  Elec       q    Type
REMARK                         _______ _______ _______ _____ _____    ______ ____
ROOT
ATOM      1  N   LIG    1       -1.245 -19.539   0.000  0.00  0.00    -0.163 NA
ATOM      2  H   LIG    1       -2.105 -20.023   0.000  0.00  0.00    +0.163 HD
ENDROOT
TORSDOF 0
REMARK  Name = molecules/QEEJLLNYQOBRRM-KSHGRFHLSA-N.pdb
REMARK                            x       y       z     vdW  Elec       q    Type
REMARK                         _______ _______ _______ _____ _____    ______ ____
ROOT
ATOM      1  N   LIG    1       -0.294 -17.490   0.000  0.00  0.00    +0.038 NA
ATOM      2  O   LIG    1        0.209 -16.967   0.000  0.00  0.00    -0.278 OA
ATOM      3  H   LIG    1        0.169 -16.319   0.000  0.00  0.00    +0.240 HD
ENDROOT
TORSDOF 0
REMARK  Name = molecules/QEEJLLNYQOBRRM-KSHGRFHLSA-N.pdb
REMARK                            x       y       z     vdW  Elec       q    Type
REMARK                         _______ _______ _______ _____ _____    ______ ____
ROOT
ATOM      1  N   LIG    1       -0.843 -13.941   0.000  0.00  0.00    -0.136 NA
ATOM      2  C   LIG    1       -0.843 -13.245   0.000  0.00  0.00    +0.136 C 
ENDROOT
TORSDOF 0
REMARK  Name = molecules/QEEJLLNYQOBRRM-KSHGRFHLSA-N.pdb
REMARK                            x       y       z     vdW  Elec       q    Type
REMARK                         _______ _______ _______ _____ _____    ______ ____
ROOT
ATOM      1  N   LIG    1       -4.392 -14.490   0.000  0.00  0.00    +0.000 NA
ENDROOT
TORSDOF 0
REMARK  Name = molecules/QEEJLLNYQOBRRM-KSHGRFHLSA-N.pdb
REMARK                            x       y       z     vdW  Elec       q    Type
REMARK                         _______ _______ _______ _____ _____    ______ ____
ROOT
ATOM      1  N   LIG    1       -3.843 -18.039   0.000  0.00  0.00    -0.180 NA
ATOM      2  C   LIG    1       -3.441 -17.343   0.000  0.00  0.00    +0.180 C 
ENDROOT
TORSDOF 0
REMARK  Name = molecules/QEEJLLNYQOBRRM-KSHGRFHLSA-N.pdb
REMARK                            x       y       z     vdW  Elec       q    Type
REMARK                         _______ _______ _______ _____ _____    ______ ____
ROOT
ATOM      1  N   LIG    1       -4.794 -20.088   0.000  0.00  0.00    -0.163 NA
ATOM      2  H   LIG    1       -4.154 -19.474   0.000  0.00  0.00    +0.163 HD
ENDROOT
TORSDOF 0
REMARK  Name = molecules/QEEJLLNYQOBRRM-KSHGRFHLSA-N.pdb
REMARK                            x       y       z     vdW  Elec       q    Type
REMARK                         _______ _______ _______ _____ _____    ______ ____
ROOT
ATOM      1  N   LIG    1       -4.245 -23.637   0.000  0.00  0.00    -0.163 NA
ATOM      2  H   LIG    1       -5.128 -23.243   0.000  0.00  0.00    +0.163 HD
ENDROOT
TORSDOF 0
REMARK  Name = molecules/QEEJLLNYQOBRRM-KSHGRFHLSA-N.pdb
REMARK                            x       y       z     vdW  Elec       q    Type
REMARK                         _______ _______ _______ _____ _____    ______ ____
ROOT
ATOM      1  N   LIG    1       -0.696 -23.088   0.000  0.00  0.00    -0.130 NA
ATOM      2  C   LIG    1       -2.196 -23.088   0.000  0.00  0.00    +0.130 C 
ENDROOT
TORSDOF 0
REMARK  Name = molecules/QEEJLLNYQOBRRM-KSHGRFHLSA-N.pdb
REMARK                            x       y       z     vdW  Elec       q    Type
REMARK                         _______ _______ _______ _____ _____    ______ ____
ROOT
ATOM      1  N   LIG    1       -2.544 -21.789   0.000  0.00  0.00    +0.077 NA
ATOM      2  O   LIG    1       -3.238 -22.009   0.000  0.00  0.00    -0.103 OA
ENDROOT
BRANCH   2   3
ATOM      3  O   LIG    1       -3.294 -22.686   0.000  0.00  0.00    -0.229 OA
ATOM      4  H   LIG    1       -2.907 -23.245   0.000  0.00  0.00    +0.255 HD
ENDBRANCH   2   3
TORSDOF 1
REMARK  Name = molecules/QEEJLLNYQOBRRM-KSHGRFHLSA-N.pdb
REMARK                            x       y       z     vdW  Elec       q    Type
REMARK                         _______ _______ _______ _____ _____    ______ ____
ROOT
ATOM      1  O   HOH    1       17.814   7.634   0.000  0.00  0.00    -0.410 OA
ATOM      2  H   HOH    0       18.930   7.275   0.000  0.00  0.00    +0.205 HD
ATOM      3  H   HOH    0       17.225   8.237   0.000  0.00  0.00    +0.205 HD
ENDROOT
TORSDOF 0
REMARK  Name = molecules/QEEJLLNYQOBRRM-KSHGRFHLSA-N.pdb
REMARK                            x       y       z     vdW  Elec       q    Type
REMARK                         _______ _______ _______ _____ _____    ______ ____
ROOT
ATOM      1  C   LIG    1       14.283  10.422   0.000  0.00  0.00    +0.000 C 
ENDROOT
TORSDOF 0
REMARK  Name = molecules/QEEJLLNYQOBRRM-KSHGRFHLSA-N.pdb
REMARK                            x       y       z     vdW  Elec       q    Type
REMARK                         _______ _______ _______ _____ _____    ______ ____
ROOT
ATOM      1  C   LIG    1       16.533   6.525   0.000  0.00  0.00    +0.126 C 
ENDROOT
BRANCH   1   2
ATOM      2  C   LIG    1       17.283   5.226   0.000  0.00  0.00    +0.256 C 
ATOM      3  N   LIG    1       16.533   3.926   0.000  0.00  0.00    -0.088 NA
ATOM      4  O   LIG    1       18.783   5.226   0.000  0.00  0.00    -0.272 OA
ENDBRANCH   1   2
BRANCH   1   5
ATOM      5  C   LIG    1       15.783   7.824   0.000  0.00  0.00    -0.018 C 
ATOM      6  C   LIG    1       15.033   9.123   0.000  0.00  0.00    -0.004 C 
ENDBRANCH   1   5
TORSDOF 2
REMARK  Name = molecules/QEEJLLNYQOBRRM-KSHGRFHLSA-N.pdb
REMARK                            x       y       z     vdW  Elec       q    Type
REMARK                         _______ _______ _______ _____ _____    ______ ____
ROOT
ATOM      1  O   HOH    1       15.186  11.620   0.000  0.00  0.00    -0.410 OA
ATOM      2  H   HOH    0       16.332  11.373   0.000  0.00  0.00    +0.205 HD
ATOM      3  H   HOH    0       14.498  11.527   0.000  0.00  0.00    +0.205 HD
ENDROOT
TORSDOF 0
REMARK  Name = molecules/QEEJLLNYQOBRRM-KSHGRFHLSA-N.pdb
REMARK                            x       y       z     vdW  Elec       q    Type
REMARK                         _______ _______ _______ _____ _____    ______ ____
ROOT
ATOM      1  C   LIG    1       10.734  10.971   0.000  0.00  0.00    +0.000 C 
ENDROOT
TORSDOF 0
REMARK  Name = molecules/QEEJLLNYQOBRRM-KSHGRFHLSA-N.pdb
REMARK                            x       y       z     vdW  Elec       q    Type
REMARK                         _______ _______ _______ _____ _____    ______ ____
ROOT
ATOM      1  C   LIG    1       15.930  13.971   0.000  0.00  0.00    +0.356 C 
ATOM      2  O   LIG    1       17.229  13.221   0.000  0.00  0.00    -0.246 OA
ATOM      3  O   LIG    1       15.930  15.471   0.000  0.00  0.00    -0.246 OA
ENDROOT
BRANCH   1   5
ATOM      4  C   LIG    1       13.332  12.471   0.000  0.00  0.00    +0.012 C 
ATOM      5  C   LIG    1       14.631  13.221   0.000  0.00  0.00    +0.125 C 
ENDBRANCH   1   5
TORSDOF 1
REMARK  Name = molecules/QEEJLLNYQOBRRM-KSHGRFHLSA-N.pdb
REMARK                            x       y       z     vdW  Elec       q    Type
REMARK                         _______ _______ _______ _____ _____    ______ ____
ROOT
ATOM      1  C   LIG    1       12.033  11.721   0.000  0.00  0.00    +0.009 C 
ATOM      2  C   LIG    1       12.623  10.562   0.000  0.00  0.00    -0.005 C 
ATOM      3  C   LIG    1       11.196  11.025   0.000  0.00  0.00    -0.005 C 
ENDROOT
TORSDOF 0
REMARK  Name = molecules/QEEJLLNYQOBRRM-KSHGRFHLSA-N.pdb
REMARK                            x       y       z     vdW  Elec       q    Type
REMARK                         _______ _______ _______ _____ _____    ______ ____
ROOT
ATOM      1  C   LIG    1        8.815   9.812   0.000  0.00  0.00    -0.000 C 
ENDROOT
TORSDOF 0
REMARK  Name = molecules/QEEJLLNYQOBRRM-KSHGRFHLSA-N.pdb
REMARK                            x       y       z     vdW  Elec       q    Type
REMARK                         _______ _______ _______ _____ _____    ______ ____
ROOT
ATOM      1  O   LIG    1        7.912   8.614   0.000  0.00  0.00    -0.186 OA
ATOM      2  C   LIG    1        7.098   8.196   0.000  0.00  0.00    +0.221 C 
ATOM      3  O   LIG    1        8.699   8.751   0.000  0.00  0.00    -0.035 OA
ENDROOT
TORSDOF 0
REMARK  Name = molecules/QEEJLLNYQOBRRM-KSHGRFHLSA-N.pdb
REMARK                            x       y       z     vdW  Elec       q    Type
REMARK                         _______ _______ _______ _____ _____    ______ ____
ROOT
ATOM      1  O   HOH    1       10.848   4.299   0.000  0.00  0.00    -0.410 OA
ATOM      2  H   HOH    0       11.196   5.598   0.000  0.00  0.00    +0.205 HD
ATOM      3  H   HOH    0       10.234   3.893   0.000  0.00  0.00    +0.205 HD
ENDROOT
TORSDOF 0
REMARK  Name = molecules/QEEJLLNYQOBRRM-KSHGRFHLSA-N.pdb
REMARK                            x       y       z     vdW  Elec       q    Type
REMARK                         _______ _______ _______ _____ _____    ______ ____
ROOT
ATOM      1  O   HOH    1        6.851   1.854   0.000  0.00  0.00    -0.410 OA
ATOM      2  H   HOH    0        7.098   3.000   0.000  0.00  0.00    +0.205 HD
ATOM      3  H   HOH    0        7.079   1.042   0.000  0.00  0.00    +0.205 HD
ENDROOT
TORSDOF 0
REMARK  Name = molecules/QEEJLLNYQOBRRM-KSHGRFHLSA-N.pdb
REMARK                            x       y       z     vdW  Elec       q    Type
REMARK                         _______ _______ _______ _____ _____    ______ ____
ROOT
ATOM      1  C   LIG    1        7.500  -2.598   0.000  0.00  0.00    +0.122 C 
ATOM      2  N   LIG    1        8.397  -1.848   0.000  0.00  0.00    -0.198 NA
ATOM      3  H   LIG    1        9.348  -1.299   0.000  0.00  0.00    +0.154 HD
ENDROOT
BRANCH   2   4
ATOM      4  O   LIG    1        8.989  -2.781   0.000  0.00  0.00    -0.315 OA
ATOM      5  H   LIG    1        8.213  -3.065   0.000  0.00  0.00    +0.236 HD
ENDBRANCH   2   4
TORSDOF 1
REMARK  Name = molecules/QEEJLLNYQOBRRM-KSHGRFHLSA-N.pdb
REMARK                            x       y       z     vdW  Elec       q    Type
REMARK                         _______ _______ _______ _____ _____    ______ ____
ROOT
ATOM      1  C   LIG    1        6.201  -5.946   0.000  0.00  0.00    +0.000 C 
ENDROOT
TORSDOF 0
REMARK  Name = molecules/QEEJLLNYQOBRRM-KSHGRFHLSA-N.pdb
REMARK                            x       y       z     vdW  Elec       q    Type
REMARK                         _______ _______ _______ _____ _____    ______ ____
ROOT
ATOM      1  C   LIG    1        8.799  -4.446   0.000  0.00  0.00    -0.005 C 
ATOM      2  C   LIG    1        7.848  -4.995   0.000  0.00  0.00    +0.005 C 
ENDROOT
TORSDOF 0
REMARK  Name = molecules/QEEJLLNYQOBRRM-KSHGRFHLSA-N.pdb
REMARK                            x       y       z     vdW  Elec       q    Type
REMARK                         _______ _______ _______ _____ _____    ______ ____
ROOT
ATOM      1  C   LIG    1       10.098  -3.696   0.000  0.00  0.00    +0.258 C 
ATOM      2  S   LIG    1        9.147  -4.245   0.000  0.00  0.00    -0.085 S 
ATOM      3  C   LIG    1       10.446  -4.995   0.000  0.00  0.00    +0.258 C 
ATOM      4  O   LIG    1       11.479  -4.282   0.000  0.00  0.00    -0.216 OA
ATOM      5  O   LIG    1       10.098  -2.196   0.000  0.00  0.00    -0.216 OA
ENDROOT
TORSDOF 0
REMARK  Name = molecules/QEEJLLNYQOBRRM-KSHGRFHLSA-N.pdb
REMARK                            x       y       z     vdW  Elec       q    Type
REMARK                         _______ _______ _______ _____ _____    ______ ____
ROOT
ATOM      1  C   LIG    1        7.500  -5.196   0.000  0.00  0.00    -0.005 C 
ATOM      2  C   LIG    1        6.549  -5.745   0.000  0.00  0.00    +0.005 C 
ENDROOT
TORSDOF 0
REMARK  Name = molecules/QEEJLLNYQOBRRM-KSHGRFHLSA-N.pdb
REMARK                            x       y       z     vdW  Elec       q    Type
REMARK                         _______ _______ _______ _____ _____    ______ ____
ROOT
ATOM      1  O   HOH    1        5.406  -4.674   0.000  0.00  0.00    -0.410 OA
ATOM      2  H   HOH    0        6.034  -4.830   0.000  0.00  0.00    +0.205 HD
ATOM      3  H   HOH    0        4.901  -5.546   0.000  0.00  0.00    +0.205 HD
ENDROOT
TORSDOF 0
REMARK  Name = molecules/QEEJLLNYQOBRRM-KSHGRFHLSA-N.pdb
REMARK                            x       y       z     vdW  Elec       q    Type
REMARK                         _______ _______ _______ _____ _____    ______ ____
ROOT
ATOM      1  C   LIG    1        5.652  -9.495   0.000  0.00  0.00    +0.087 C 
ATOM      2  C   LIG    1        4.902  -9.696   0.000  0.00  0.00    +0.018 C 
ENDROOT
BRANCH   1   3
ATOM      3  N   LIG    1        6.272 -10.306   0.000  0.00  0.00    -0.274 NA
ATOM      4  H   LIG    1        6.777 -10.810   0.000  0.00  0.00    +0.169 HD
ENDBRANCH   1   3
TORSDOF 1
REMARK  Name = molecules/QEEJLLNYQOBRRM-KSHGRFHLSA-N.pdb
REMARK                            x       y       z     vdW  Elec       q    Type
REMARK                         _______ _______ _______ _____ _____    ______ ____
ROOT
ATOM      1  C   LIG    1        2.652  -4.299   0.000  0.00  0.00    -0.005 C 
ATOM      2  C   LIG    1        3.201  -4.848   0.000  0.00  0.00    -0.031 C 
ATOM      3  C   LIG    1        3.402  -5.598   0.000  0.00  0.00    +0.036 C 
ENDROOT
TORSDOF 0
REMARK  Name = molecules/QEEJLLNYQOBRRM-KSHGRFHLSA-N.pdb
REMARK                            x       y       z     vdW  Elec       q    Type
REMARK                         _______ _______ _______ _____ _____    ______ ____
ROOT
ATOM      1  C   LIG    1        4.152  -6.897   0.000  0.00  0.00    +0.005 C 
ATOM      2  C   LIG    1        5.250  -6.495   0.000  0.00  0.00    -0.005 C 
ENDROOT
TORSDOF 0
REMARK  Name = molecules/QEEJLLNYQOBRRM-KSHGRFHLSA-N.pdb
REMARK                            x       y       z     vdW  Elec       q    Type
REMARK                         _______ _______ _______ _____ _____    ______ ____
ROOT
ATOM      1  O   HOH    1        7.052  -8.957   0.000  0.00  0.00    -0.253 OA
ATOM      2  H   HOH    0        7.500  -8.196   0.000  0.00  0.00    +0.253 HD
ENDROOT
TORSDOF 0
REMARK  Name = molecules/QEEJLLNYQOBRRM-KSHGRFHLSA-N.pdb
REMARK                            x       y       z     vdW  Elec       q    Type
REMARK                         _______ _______ _______ _____ _____    ______ ____
ROOT
ATOM      1  C   LIG    1        4.353 -12.843   0.000  0.00  0.00    +0.080 C 
ATOM      2  C   LIG    1        3.603 -13.044   0.000  0.00  0.00    +0.025 C 
ENDROOT
BRANCH   1   3
ATOM      3  N   LIG    1        5.095 -12.887   0.000  0.00  0.00    -0.246 NA
ATOM      4  H   LIG    1        6.402 -13.392   0.000  0.00  0.00    +0.141 HD
ENDBRANCH   1   3
TORSDOF 1
REMARK  Name = molecules/QEEJLLNYQOBRRM-KSHGRFHLSA-N.pdb
REMARK                            x       y       z     vdW  Elec       q    Type
REMARK                         _______ _______ _______ _____ _____    ______ ____
ROOT
ATOM      1  O   HOH    1        7.701 -12.642   0.000  0.00  0.00    +0.000 OA
ENDROOT
TORSDOF 0
REMARK  Name = molecules/QEEJLLNYQOBRRM-KSHGRFHLSA-N.pdb
REMARK                            x       y       z     vdW  Elec       q    Type
REMARK                         _______ _______ _______ _____ _____    ______ ____
ROOT
ATOM      1  C   LIG    1        8.250 -10.593   0.000  0.00  0.00    +0.000 C 
ENDROOT
TORSDOF 0
REMARK  Name = molecules/QEEJLLNYQOBRRM-KSHGRFHLSA-N.pdb
REMARK                            x       y       z     vdW  Elec       q    Type
REMARK                         _______ _______ _______ _____ _____    ______ ____
ROOT
ATOM      1  C   LIG    1        6.951 -11.343   0.000  0.00  0.00    +0.000 C 
ENDROOT
TORSDOF 0
REMARK  Name = molecules/QEEJLLNYQOBRRM-KSHGRFHLSA-N.pdb
REMARK                            x       y       z     vdW  Elec       q    Type
REMARK                         _______ _______ _______ _____ _____    ______ ____
ROOT
ATOM      1  O   HOH    1        3.155 -11.941   0.000  0.00  0.00    +0.000 OA
ENDROOT
TORSDOF 0
REMARK  Name = molecules/QEEJLLNYQOBRRM-KSHGRFHLSA-N.pdb
REMARK                            x       y       z     vdW  Elec       q    Type
REMARK                         _______ _______ _______ _____ _____    ______ ____
ROOT
ATOM      1  C   LIG    1        2.304 -13.794   0.000  0.00  0.00    +0.000 C 
ENDROOT
TORSDOF 0
REMARK  Name = molecules/QEEJLLNYQOBRRM-KSHGRFHLSA-N.pdb
REMARK                            x       y       z     vdW  Elec       q    Type
REMARK                         _______ _______ _______ _____ _____    ______ ____
ROOT
ATOM      1  C   LIG    1        3.804 -16.392   0.000  0.00  0.00    +0.000 C 
ENDROOT
TORSDOF 0
REMARK  Name = molecules/QEEJLLNYQOBRRM-KSHGRFHLSA-N.pdb
REMARK                            x       y       z     vdW  Elec       q    Type
REMARK                         _______ _______ _______ _____ _____    ______ ____
ROOT
ATOM      1  C   LIG    1        4.554 -17.691   0.000  0.00  0.00    +0.000 C 
ENDROOT
TORSDOF 0
REMARK  Name = molecules/QEEJLLNYQOBRRM-KSHGRFHLSA-N.pdb
REMARK                            x       y       z     vdW  Elec       q    Type
REMARK                         _______ _______ _______ _____ _____    ______ ____
ROOT
ATOM      1  C   LIG    1        3.804 -18.990   0.000  0.00  0.00    +0.012 C 
ATOM      2  C   LIG    1        4.353 -18.441   0.000  0.00  0.00    -0.055 C 
ATOM      3  C   LIG    1        4.554 -17.691   0.000  0.00  0.00    +0.043 C 
ENDROOT
TORSDOF 0
REMARK  Name = molecules/QEEJLLNYQOBRRM-KSHGRFHLSA-N.pdb
REMARK                            x       y       z     vdW  Elec       q    Type
REMARK                         _______ _______ _______ _____ _____    ______ ____
ROOT
ATOM      1  C   LIG    1        4.554 -20.289   0.000  0.00  0.00    +0.279 C 
ATOM      2  O   LIG    1        3.951 -21.039   0.000  0.00  0.00    -0.279 OA
ENDROOT
TORSDOF 0
REMARK  Name = molecules/QEEJLLNYQOBRRM-KSHGRFHLSA-N.pdb
REMARK                            x       y       z     vdW  Elec       q    Type
REMARK                         _______ _______ _______ _____ _____    ______ ____
ROOT
ATOM      1  C   LIG    1        6.054 -20.289   0.000  0.00  0.00    +0.000 C 
ENDROOT
TORSDOF 0
REMARK  Name = molecules/QEEJLLNYQOBRRM-KSHGRFHLSA-N.pdb
REMARK                            x       y       z     vdW  Elec       q    Type
REMARK                         _______ _______ _______ _____ _____    ______ ____
ROOT
ATOM      1  C   LIG    1        6.804 -18.990   0.000  0.00  0.00    +0.103 C 
ATOM      2  N   LIG    1        8.250 -19.191   0.000  0.00  0.00    -0.244 NA
ATOM      3  H   LIG    1        7.554 -20.289   0.000  0.00  0.00    +0.141 HD
ENDROOT
TORSDOF 0
REMARK  Name = molecules/QEEJLLNYQOBRRM-KSHGRFHLSA-N.pdb
REMARK                            x       y       z     vdW  Elec       q    Type
REMARK                         _______ _______ _______ _____ _____    ______ ____
ROOT
ATOM      1  C   LIG    1        6.054 -17.691   0.000  0.00  0.00    -0.000 C 
ENDROOT
TORSDOF 0
REMARK  Name = molecules/QEEJLLNYQOBRRM-KSHGRFHLSA-N.pdb
REMARK                            x       y       z     vdW  Elec       q    Type
REMARK                         _______ _______ _______ _____ _____    ______ ____
ROOT
ATOM      1  C   LIG    1        3.054 -15.093   0.000  0.00  0.00    +0.000 C 
ENDROOT
TORSDOF 0
REMARK  Name = molecules/QEEJLLNYQOBRRM-KSHGRFHLSA-N.pdb
REMARK                            x       y       z     vdW  Elec       q    Type
REMARK                         _______ _______ _______ _____ _____    ______ ____
ROOT
ATOM      1  O   LIG    1        1.320 -12.662   0.000  0.00  0.00    -0.038 OA
ATOM      2  O   LIG    1        1.816 -13.172   0.000  0.00  0.00    -0.218 OA
ATOM      3  H   LIG    1        1.936 -13.908   0.000  0.00  0.00    +0.256 HD
ENDROOT
TORSDOF 0
REMARK  Name = molecules/QEEJLLNYQOBRRM-KSHGRFHLSA-N.pdb
REMARK                            x       y       z     vdW  Elec       q    Type
REMARK                         _______ _______ _______ _____ _____    ______ ____
ROOT
ATOM      1  C   LIG    1        1.005 -11.946   0.000  0.00  0.00    +0.176 C 
ATOM      2  O   LIG    1        0.271 -12.241   0.000  0.00  0.00    -0.386 OA
ATOM      3  H   LIG    1       -0.194 -12.795   0.000  0.00  0.00    +0.210 HD
ENDROOT
TORSDOF 0
REMARK  Name = molecules/QEEJLLNYQOBRRM-KSHGRFHLSA-N.pdb
REMARK                            x       y       z     vdW  Elec       q    Type
REMARK                         _______ _______ _______ _____ _____    ______ ____
ROOT
ATOM      1  C   LIG    1        3.603 -10.446   0.000  0.00  0.00    -0.000 C 
ENDROOT
TORSDOF 0
REMARK  Name = molecules/QEEJLLNYQOBRRM-KSHGRFHLSA-N.pdb
REMARK                            x       y       z     vdW  Elec       q    Type
REMARK                         _______ _______ _______ _____ _____    ______ ____
ROOT
ATOM      1  C   LIG    1        5.059  -8.204   0.000  0.00  0.00    +0.000 C 
ENDROOT
TORSDOF 0
REMARK  Name = molecules/QEEJLLNYQOBRRM-KSHGRFHLSA-N.pdb
REMARK                            x       y       z     vdW  Elec       q    Type
REMARK                         _______ _______ _______ _____ _____    ______ ____
ROOT
ATOM      1  N   LIG    1        6.526  -7.893   0.000  0.00  0.00    -0.163 NA
ATOM      2  H   LIG    1        7.452  -6.943   0.000  0.00  0.00    +0.163 HD
ENDROOT
TORSDOF 0
REMARK  Name = molecules/QEEJLLNYQOBRRM-KSHGRFHLSA-N.pdb
REMARK                            x       y       z     vdW  Elec       q    Type
REMARK                         _______ _______ _______ _____ _____    ______ ____
ROOT
ATOM      1  C   LIG    1        7.276  -9.191   0.000  0.00  0.00    -0.000 C 
ENDROOT
TORSDOF 0
REMARK  Name = molecules/QEEJLLNYQOBRRM-KSHGRFHLSA-N.pdb
REMARK                            x       y       z     vdW  Elec       q    Type
REMARK                         _______ _______ _______ _____ _____    ______ ____
ROOT
ATOM      1  C   LIG    1        2.304 -11.196   0.000  0.00  0.00    +0.086 C 
ATOM      2  C   LIG    1        2.993 -11.674   0.000  0.00  0.00    +0.203 C 
ATOM      3  O   LIG    1        2.890 -12.414   0.000  0.00  0.00    -0.289 OA
ENDROOT
TORSDOF 0
REMARK  Name = molecules/QEEJLLNYQOBRRM-KSHGRFHLSA-N.pdb
REMARK                            x       y       z     vdW  Elec       q    Type
REMARK                         _______ _______ _______ _____ _____    ______ ____
ROOT
ATOM      1  O   HOH    1        0.822 -13.435   0.000  0.00  0.00    -0.253 OA
ATOM      2  H   HOH    0        1.565 -12.945   0.000  0.00  0.00    +0.253 HD
ENDROOT
TORSDOF 0
REMARK  Name = molecules/QEEJLLNYQOBRRM-KSHGRFHLSA-N.pdb
REMARK                            x       y       z     vdW  Elec       q    Type
REMARK                         _______ _______ _______ _____ _____    ______ ____
ROOT
ATOM      1  C   LIG    1       -3.843  -8.049   0.000  0.00  0.00    -0.000 C 
ENDROOT
TORSDOF 0
REMARK  Name = molecules/QEEJLLNYQOBRRM-KSHGRFHLSA-N.pdb
REMARK                            x       y       z     vdW  Elec       q    Type
REMARK                         _______ _______ _______ _____ _____    ______ ____
ROOT
ATOM      1  C   LIG    1       -2.343 -10.647   0.000  0.00  0.00    +0.000 C 
ENDROOT
TORSDOF 0
REMARK  Name = molecules/QEEJLLNYQOBRRM-KSHGRFHLSA-N.pdb
REMARK                            x       y       z     vdW  Elec       q    Type
REMARK                         _______ _______ _______ _____ _____    ______ ____
ROOT
ATOM      1  C   LIG    1       -1.593 -11.946   0.000  0.00  0.00    +0.000 C 
ENDROOT
TORSDOF 0
REMARK  Name = molecules/QEEJLLNYQOBRRM-KSHGRFHLSA-N.pdb
REMARK                            x       y       z     vdW  Elec       q    Type
REMARK                         _______ _______ _______ _____ _____    ______ ____
ROOT
ATOM      1  C   LIG    1       -4.392 -10.098   0.000  0.00  0.00    +0.000 C 
ENDROOT
TORSDOF 0
REMARK  Name = molecules/QEEJLLNYQOBRRM-KSHGRFHLSA-N.pdb
REMARK                            x       y       z     vdW  Elec       q    Type
REMARK                         _______ _______ _______ _____ _____    ______ ____
ROOT
ATOM      1  C   LIG    1       -3.093  -9.348   0.000  0.00  0.00    +0.000 C 
ENDROOT
TORSDOF 0
REMARK  Name = molecules/QEEJLLNYQOBRRM-KSHGRFHLSA-N.pdb
REMARK                            x       y       z     vdW  Elec       q    Type
REMARK                         _______ _______ _______ _____ _____    ______ ____
ROOT
ATOM      1  C   LIG    1        0.456 -15.093   0.000  0.00  0.00    +0.000 C 
ENDROOT
TORSDOF 0
REMARK  Name = molecules/QEEJLLNYQOBRRM-KSHGRFHLSA-N.pdb
REMARK                            x       y       z     vdW  Elec       q    Type
REMARK                         _______ _______ _______ _____ _____    ______ ____
ROOT
ATOM      1  C   LIG    1       -4.740 -18.093   0.000  0.00  0.00    -0.000 C 
ENDROOT
TORSDOF 0
REMARK  Name = molecules/QEEJLLNYQOBRRM-KSHGRFHLSA-N.pdb
REMARK                            x       y       z     vdW  Elec       q    Type
REMARK                         _______ _______ _______ _____ _____    ______ ____
ROOT
ATOM      1  C   LIG    1       -2.142 -16.593   0.000  0.00  0.00    +0.133 C 
ATOM      2  C   LIG    1       -1.794 -17.490   0.000  0.00  0.00    +0.039 C 
ENDROOT
BRANCH   1   3
ATOM      3  O   LIG    1       -2.325 -15.676   0.000  0.00  0.00    -0.382 OA
ATOM      4  H   LIG    1       -2.918 -15.249   0.000  0.00  0.00    +0.210 HD
ENDBRANCH   1   3
TORSDOF 1
REMARK  Name = molecules/QEEJLLNYQOBRRM-KSHGRFHLSA-N.pdb
REMARK                            x       y       z     vdW  Elec       q    Type
REMARK                         _______ _______ _______ _____ _____    ______ ____
ROOT
ATOM      1  C   LIG    1       -0.843 -15.843   0.000  0.00  0.00    +0.000 C 
ENDROOT
TORSDOF 0
REMARK  Name = molecules/QEEJLLNYQOBRRM-KSHGRFHLSA-N.pdb
REMARK                            x       y       z     vdW  Elec       q    Type
REMARK                         _______ _______ _______ _____ _____    ______ ____
ROOT
ATOM      1  C   LIG    1       -2.691 -18.642   0.000  0.00  0.00    +0.000 C 
ENDROOT
TORSDOF 0
REMARK  Name = molecules/QEEJLLNYQOBRRM-KSHGRFHLSA-N.pdb
REMARK                            x       y       z     vdW  Elec       q    Type
REMARK                         _______ _______ _______ _____ _____    ______ ____
ROOT
ATOM      1  O   HOH    1        0.093 -13.638   0.000  0.00  0.00    -0.253 OA
ATOM      2  H   HOH    0        0.748 -13.813   0.000  0.00  0.00    +0.253 HD
ENDROOT
TORSDOF 0
REMARK  Name = molecules/QEEJLLNYQOBRRM-KSHGRFHLSA-N.pdb
REMARK                            x       y       z     vdW  Elec       q    Type
REMARK                         _______ _______ _______ _____ _____    ______ ____
ROOT
ATOM      1  C   LIG    1        2.304 -13.794   0.000  0.00  0.00    +0.000 C 
ATOM      2  C   LIG    1        2.853 -14.343   0.000  0.00  0.00    +0.000 C 
ENDROOT
TORSDOF 0
REMARK  Name = molecules/QEEJLLNYQOBRRM-KSHGRFHLSA-N.pdb
REMARK                            x       y       z     vdW  Elec       q    Type
REMARK                         _______ _______ _______ _____ _____    ______ ____
ROOT
ATOM      1  C   LIG    1        3.804 -16.392   0.000  0.00  0.00    +0.000 C 
ENDROOT
TORSDOF 0
REMARK  Name = molecules/QEEJLLNYQOBRRM-KSHGRFHLSA-N.pdb
REMARK                            x       y       z     vdW  Elec       q    Type
REMARK                         _______ _______ _______ _____ _____    ______ ____
ROOT
ATOM      1  C   LIG    1        5.304 -18.990   0.000  0.00  0.00    +0.000 C 
ENDROOT
TORSDOF 0
REMARK  Name = molecules/QEEJLLNYQOBRRM-KSHGRFHLSA-N.pdb
REMARK                            x       y       z     vdW  Elec       q    Type
REMARK                         _______ _______ _______ _____ _____    ______ ____
ROOT
ATOM      1  N   LIG    1        6.054 -20.289   0.000  0.00  0.00    -0.140 NA
ATOM      2  N   LIG    1        5.652 -19.191   0.000  0.00  0.00    -0.024 NA
ATOM      3  H   LIG    1        4.670 -20.350   0.000  0.00  0.00    +0.165 HD
ENDROOT
TORSDOF 0
REMARK  Name = molecules/QEEJLLNYQOBRRM-KSHGRFHLSA-N.pdb
REMARK                            x       y       z     vdW  Elec       q    Type
REMARK                         _______ _______ _______ _____ _____    ______ ____
ROOT
ATOM      1  C   LIG    1        5.304 -21.588   0.000  0.00  0.00    +0.000 C 
ENDROOT
TORSDOF 0
REMARK  Name = molecules/QEEJLLNYQOBRRM-KSHGRFHLSA-N.pdb
REMARK                            x       y       z     vdW  Elec       q    Type
REMARK                         _______ _______ _______ _____ _____    ______ ____
ROOT
ATOM      1  N   LIG    1        3.804 -21.588   0.000  0.00  0.00    -0.163 NA
ATOM      2  H   LIG    1        3.951 -22.539   0.000  0.00  0.00    +0.163 HD
ENDROOT
TORSDOF 0
REMARK  Name = molecules/QEEJLLNYQOBRRM-KSHGRFHLSA-N.pdb
REMARK                            x       y       z     vdW  Elec       q    Type
REMARK                         _______ _______ _______ _____ _____    ______ ____
ROOT
ATOM      1  N   LIG    1        6.054 -22.887   0.000  0.00  0.00    +0.000 NA
ENDROOT
TORSDOF 0
REMARK  Name = molecules/QEEJLLNYQOBRRM-KSHGRFHLSA-N.pdb
REMARK                            x       y       z     vdW  Elec       q    Type
REMARK                         _______ _______ _______ _____ _____    ______ ____
ROOT
ATOM      1  C   LIG    1        3.054 -15.093   0.000  0.00  0.00    +0.000 C 
ATOM      2  C   LIG    1        2.103 -15.642   0.000  0.00  0.00    +0.000 C 
ENDROOT
TORSDOF 0
REMARK  Name = molecules/QEEJLLNYQOBRRM-KSHGRFHLSA-N.pdb
REMARK                            x       y       z     vdW  Elec       q    Type
REMARK                         _______ _______ _______ _____ _____    ______ ____
ROOT
ATOM      1  C   LIG    1        1.353 -11.745   0.000  0.00  0.00    +0.000 C 
ENDROOT
TORSDOF 0
REMARK  Name = molecules/QEEJLLNYQOBRRM-KSHGRFHLSA-N.pdb
REMARK                            x       y       z     vdW  Elec       q    Type
REMARK                         _______ _______ _______ _____ _____    ______ ____
ROOT
ATOM      1  C   LIG    1       -1.245 -13.245   0.000  0.00  0.00    +0.000 C 
ENDROOT
TORSDOF 0
REMARK  Name = molecules/QEEJLLNYQOBRRM-KSHGRFHLSA-N.pdb
REMARK                            x       y       z     vdW  Elec       q    Type
REMARK                         _______ _______ _______ _____ _____    ______ ____
ROOT
ATOM      1  C   LIG    1       -2.544 -13.995   0.000  0.00  0.00    +0.000 C 
ENDROOT
TORSDOF 0
REMARK  Name = molecules/QEEJLLNYQOBRRM-KSHGRFHLSA-N.pdb
REMARK                            x       y       z     vdW  Elec       q    Type
REMARK                         _______ _______ _______ _____ _____    ______ ____
ROOT
ATOM      1  C   LIG    1       -3.843 -14.745   0.000  0.00  0.00    -0.005 C 
ATOM      2  C   LIG    1       -3.093 -14.142   0.000  0.00  0.00    +0.005 C 
ENDROOT
TORSDOF 0
REMARK  Name = molecules/QEEJLLNYQOBRRM-KSHGRFHLSA-N.pdb
REMARK                            x       y       z     vdW  Elec       q    Type
REMARK                         _______ _______ _______ _____ _____    ______ ____
ROOT
ATOM      1  O   HOH    1       -3.843 -16.245   0.000  0.00  0.00    +0.000 OA
ENDROOT
TORSDOF 0
REMARK  Name = molecules/QEEJLLNYQOBRRM-KSHGRFHLSA-N.pdb
REMARK                            x       y       z     vdW  Elec       q    Type
REMARK                         _______ _______ _______ _____ _____    ______ ____
ROOT
ATOM      1  O   LIG    1       -5.224 -14.159   0.000  0.00  0.00    -0.218 OA
ATOM      2  O   LIG    1       -5.800 -14.539   0.000  0.00  0.00    -0.038 OA
ATOM      3  H   LIG    1       -4.566 -14.428   0.000  0.00  0.00    +0.256 HD
ENDROOT
TORSDOF 0
REMARK  Name = molecules/QEEJLLNYQOBRRM-KSHGRFHLSA-N.pdb
REMARK                            x       y       z     vdW  Elec       q    Type
REMARK                         _______ _______ _______ _____ _____    ______ ____
ROOT
ATOM      1  C   LIG    1        0.054 -12.495   0.000  0.00  0.00    +0.000 C 
ENDROOT
TORSDOF 0
REMARK  Name = molecules/QEEJLLNYQOBRRM-KSHGRFHLSA-N.pdb
REMARK                            x       y       z     vdW  Elec       q    Type
REMARK                         _______ _______ _______ _____ _____    ______ ____
ROOT
ATOM      1  C   LIG    1        1.902  -8.196   0.000  0.00  0.00    +0.000 C 
ENDROOT
TORSDOF 0
REMARK  Name = molecules/QEEJLLNYQOBRRM-KSHGRFHLSA-N.pdb
REMARK                            x       y       z     vdW  Elec       q    Type
REMARK                         _______ _______ _______ _____ _____    ______ ____
ROOT
ATOM      1  C   LIG    1        4.152 -12.093   0.000  0.00  0.00    +0.000 C 
ENDROOT
TORSDOF 0
REMARK  Name = molecules/QEEJLLNYQOBRRM-KSHGRFHLSA-N.pdb
REMARK                            x       y       z     vdW  Elec       q    Type
REMARK                         _______ _______ _______ _____ _____    ______ ____
ROOT
ATOM      1  C   LIG    1        2.652  -9.495   0.000  0.00  0.00    +0.000 C 
ENDROOT
TORSDOF 0
REMARK  Name = molecules/QEEJLLNYQOBRRM-KSHGRFHLSA-N.pdb
REMARK                            x       y       z     vdW  Elec       q    Type
REMARK                         _______ _______ _______ _____ _____    ______ ____
ROOT
ATOM      1  C   LIG    1        2.103 -11.544   0.000  0.00  0.00    +0.000 C 
ENDROOT
TORSDOF 0
REMARK  Name = molecules/QEEJLLNYQOBRRM-KSHGRFHLSA-N.pdb
REMARK                            x       y       z     vdW  Elec       q    Type
REMARK                         _______ _______ _______ _____ _____    ______ ____
ROOT
ATOM      1  C   LIG    1        3.402 -10.794   0.000  0.00  0.00    +0.103 C 
ATOM      2  N   LIG    1        4.107 -10.670   0.000  0.00  0.00    -0.244 NA
ATOM      3  H   LIG    1        4.786 -10.734   0.000  0.00  0.00    +0.141 HD
ENDROOT
TORSDOF 0
REMARK  Name = molecules/QEEJLLNYQOBRRM-KSHGRFHLSA-N.pdb
REMARK                            x       y       z     vdW  Elec       q    Type
REMARK                         _______ _______ _______ _____ _____    ______ ____
ROOT
ATOM      1  O   HOH    1        2.136  -6.715   0.000  0.00  0.00    +0.000 OA
ENDROOT
TORSDOF 0
REMARK  Name = molecules/QEEJLLNYQOBRRM-KSHGRFHLSA-N.pdb
REMARK                            x       y       z     vdW  Elec       q    Type
REMARK                         _______ _______ _______ _____ _____    ______ ____
ROOT
ATOM      1  C   LIG    1       -4.245  -9.147   0.000  0.00  0.00    +0.000 C 
ENDROOT
TORSDOF 0
REMARK  Name = molecules/QEEJLLNYQOBRRM-KSHGRFHLSA-N.pdb
REMARK                            x       y       z     vdW  Elec       q    Type
REMARK                         _______ _______ _______ _____ _____    ______ ____
ROOT
ATOM      1  C   LIG    1       -1.647  -7.647   0.000  0.00  0.00    -0.000 C 
ENDROOT
TORSDOF 0
REMARK  Name = molecules/QEEJLLNYQOBRRM-KSHGRFHLSA-N.pdb
REMARK                            x       y       z     vdW  Elec       q    Type
REMARK                         _______ _______ _______ _____ _____    ______ ____
ROOT
ATOM      1  C   LIG    1       -0.348  -6.897   0.000  0.00  0.00    +0.000 C 
ENDROOT
TORSDOF 0
REMARK  Name = molecules/QEEJLLNYQOBRRM-KSHGRFHLSA-N.pdb
REMARK                            x       y       z     vdW  Elec       q    Type
REMARK                         _______ _______ _______ _____ _____    ______ ____
ROOT
ATOM      1  C   LIG    1       -2.946  -8.397   0.000  0.00  0.00    +0.000 C 
ENDROOT
TORSDOF 0
REMARK  Name = molecules/QEEJLLNYQOBRRM-KSHGRFHLSA-N.pdb
REMARK                            x       y       z     vdW  Elec       q    Type
REMARK                         _______ _______ _______ _____ _____    ______ ____
ROOT
ATOM      1  O   LIG    1        2.445  -6.016   0.000  0.00  0.00    -0.345 OA
ENDROOT
BRANCH   1   2
ATOM      2  C   LIG    1        1.902  -5.598   0.000  0.00  0.00    +0.245 C 
ATOM      3  C   LIG    1        3.000  -5.196   0.000  0.00  0.00    +0.035 C 
ENDBRANCH   1   2
BRANCH   1   4
ATOM      4  O   LIG    1        2.570  -6.659   0.000  0.00  0.00    -0.202 OA
ATOM      5  H   LIG    1        2.710  -7.311   0.000  0.00  0.00    +0.267 HD
ENDBRANCH   1   4
TORSDOF 2
REMARK  Name = molecules/QEEJLLNYQOBRRM-KSHGRFHLSA-N.pdb
REMARK                            x       y       z     vdW  Elec       q    Type
REMARK                         _______ _______ _______ _____ _____    ______ ____
ROOT
ATOM      1  C   LIG    1        1.500  -2.598   0.000  0.00  0.00    -0.000 C 
ENDROOT
TORSDOF 0
REMARK  Name = molecules/QEEJLLNYQOBRRM-KSHGRFHLSA-N.pdb
REMARK                            x       y       z     vdW  Elec       q    Type
REMARK                         _______ _______ _______ _____ _____    ______ ____
ROOT
ATOM      1  C   LIG    1        0.750  -1.299   0.000  0.00  0.00    +0.136 C 
ATOM      2  C   LIG    1        0.000   0.000   0.000  0.00  0.00    +0.357 C 
ATOM      3  O   LIG    1       -1.500   0.000   0.000  0.00  0.00    -0.246 OA
ATOM      4  O   LIG    1        0.750   1.299   0.000  0.00  0.00    -0.246 OA
ENDROOT
TORSDOF 0
REMARK  Name = molecules/QEEJLLNYQOBRRM-KSHGRFHLSA-N.pdb
REMARK                            x       y       z     vdW  Elec       q    Type
REMARK                         _______ _______ _______ _____ _____    ______ ____
ROOT
ATOM      1  C   LIG    1        2.250  -3.897   0.000  0.00  0.00    +0.000 C 
ENDROOT
TORSDOF 0
REMARK  Name = molecules/QEEJLLNYQOBRRM-KSHGRFHLSA-N.pdb
REMARK                            x       y       z     vdW  Elec       q    Type
REMARK                         _______ _______ _______ _____ _____    ______ ____
ROOT
ATOM      1  C   LIG    1        3.951  -7.245   0.000  0.00  0.00    +0.000 C 
ENDROOT
TORSDOF 0
REMARK  Name = molecules/QEEJLLNYQOBRRM-KSHGRFHLSA-N.pdb
REMARK                            x       y       z     vdW  Elec       q    Type
REMARK                         _______ _______ _______ _____ _____    ______ ____
ROOT
ATOM      1  C   LIG    1        1.902  -8.196   0.000  0.00  0.00    +0.018 C 
ATOM      2  C   LIG    1        1.353  -8.745   0.000  0.00  0.00    -0.018 C 
ENDROOT
TORSDOF 0
REMARK  Name = molecules/QEEJLLNYQOBRRM-KSHGRFHLSA-N.pdb
REMARK                            x       y       z     vdW  Elec       q    Type
REMARK                         _______ _______ _______ _____ _____    ______ ____
ROOT
ATOM      1  O   HOH    1        2.103 -11.544   0.000  0.00  0.00    +0.000 OA
ENDROOT
TORSDOF 0
REMARK  Name = molecules/QEEJLLNYQOBRRM-KSHGRFHLSA-N.pdb
REMARK                            x       y       z     vdW  Elec       q    Type
REMARK                         _______ _______ _______ _____ _____    ______ ____
ROOT
ATOM      1  C   LIG    1        2.652  -9.495   0.000  0.00  0.00    +0.279 C 
ATOM      2  O   LIG    1        2.148 -10.017   0.000  0.00  0.00    -0.279 OA
ENDROOT
TORSDOF 0
REMARK  Name = molecules/QEEJLLNYQOBRRM-KSHGRFHLSA-N.pdb
REMARK                            x       y       z     vdW  Elec       q    Type
REMARK                         _______ _______ _______ _____ _____    ______ ____
ROOT
ATOM      1  C   LIG    1        4.152 -12.093   0.000  0.00  0.00    +0.000 C 
ENDROOT
TORSDOF 0
REMARK  Name = molecules/QEEJLLNYQOBRRM-KSHGRFHLSA-N.pdb
REMARK                            x       y       z     vdW  Elec       q    Type
REMARK                         _______ _______ _______ _____ _____    ______ ____
ROOT
ATOM      1  C   LIG    1        3.402 -10.794   0.000  0.00  0.00    +0.000 C 
ENDROOT
TORSDOF 0
REMARK  Name = molecules/QEEJLLNYQOBRRM-KSHGRFHLSA-N.pdb
REMARK                            x       y       z     vdW  Elec       q    Type
REMARK                         _______ _______ _______ _____ _____    ______ ____
ROOT
ATOM      1  C   LIG    1        0.858  -7.995   0.000  0.00  0.00    +0.552 C 
ATOM      2  O   LIG    1        1.353  -7.245   0.000  0.00  0.00    -0.200 OA
ATOM      3  O   LIG    1        0.210  -8.010   0.000  0.00  0.00    -0.200 OA
ENDROOT
BRANCH   1   4
ATOM      4  O   LIG    1        0.447  -8.559   0.000  0.00  0.00    -0.412 OA
ATOM      5  C   LIG    1        0.108  -9.294   0.000  0.00  0.00    +0.259 C 
ENDBRANCH   1   4
TORSDOF 1
REMARK  Name = molecules/QEEJLLNYQOBRRM-KSHGRFHLSA-N.pdb
REMARK                            x       y       z     vdW  Elec       q    Type
REMARK                         _______ _______ _______ _____ _____    ______ ____
ROOT
ATOM      1  C   LIG    1        0.603  -6.348   0.000  0.00  0.00    +0.000 C 
ENDROOT
TORSDOF 0
REMARK  Name = molecules/QEEJLLNYQOBRRM-KSHGRFHLSA-N.pdb
REMARK                            x       y       z     vdW  Elec       q    Type
REMARK                         _______ _______ _______ _____ _____    ______ ____
ROOT
ATOM      1  C   LIG    1        5.799  -3.348   0.000  0.00  0.00    +0.000 C 
ENDROOT
TORSDOF 0
REMARK  Name = molecules/QEEJLLNYQOBRRM-KSHGRFHLSA-N.pdb
REMARK                            x       y       z     vdW  Elec       q    Type
REMARK                         _______ _______ _______ _____ _____    ______ ____
ROOT
ATOM      1  C   LIG    1        7.098  -2.598   0.000  0.00  0.00    +0.000 C 
ENDROOT
TORSDOF 0
REMARK  Name = molecules/QEEJLLNYQOBRRM-KSHGRFHLSA-N.pdb
REMARK                            x       y       z     vdW  Elec       q    Type
REMARK                         _______ _______ _______ _____ _____    ______ ____
ROOT
ATOM      1  C   LIG    1       -1.245  -7.647   0.000  0.00  0.00    +0.000 C 
ENDROOT
TORSDOF 0
REMARK  Name = molecules/QEEJLLNYQOBRRM-KSHGRFHLSA-N.pdb
REMARK                            x       y       z     vdW  Elec       q    Type
REMARK                         _______ _______ _______ _____ _____    ______ ____
ROOT
ATOM      1  C   LIG    1       -2.745  -5.049   0.000  0.00  0.00    +0.000 C 
ENDROOT
TORSDOF 0
REMARK  Name = molecules/QEEJLLNYQOBRRM-KSHGRFHLSA-N.pdb
REMARK                            x       y       z     vdW  Elec       q    Type
REMARK                         _______ _______ _______ _____ _____    ______ ____
ROOT
ATOM      1  C   LIG    1       -1.995  -6.348   0.000  0.00  0.00    +0.000 C 
ENDROOT
TORSDOF 0
REMARK  Name = molecules/QEEJLLNYQOBRRM-KSHGRFHLSA-N.pdb
REMARK                            x       y       z     vdW  Elec       q    Type
REMARK                         _______ _______ _______ _____ _____    ______ ____
ROOT
ATOM      1  C   LIG    1       -2.544 -10.995   0.000  0.00  0.00    +0.000 C 
ENDROOT
TORSDOF 0
REMARK  Name = molecules/QEEJLLNYQOBRRM-KSHGRFHLSA-N.pdb
REMARK                            x       y       z     vdW  Elec       q    Type
REMARK                         _______ _______ _______ _____ _____    ______ ____
ROOT
ATOM      1  C   LIG    1        0.054  -9.495   0.000  0.00  0.00    -0.000 C 
ENDROOT
TORSDOF 0
REMARK  Name = molecules/QEEJLLNYQOBRRM-KSHGRFHLSA-N.pdb
REMARK                            x       y       z     vdW  Elec       q    Type
REMARK                         _______ _______ _______ _____ _____    ______ ____
ROOT
ATOM      1  O   LIG    1       -2.544 -12.495   0.000  0.00  0.00    -0.279 OA
ATOM      2  C   LIG    1       -2.142 -13.191   0.000  0.00  0.00    +0.279 C 
ENDROOT
TORSDOF 0
REMARK  Name = molecules/QEEJLLNYQOBRRM-KSHGRFHLSA-N.pdb
REMARK                            x       y       z     vdW  Elec       q    Type
REMARK                         _______ _______ _______ _____ _____    ______ ____
ROOT
ATOM      1  C   LIG    1       -4.392 -12.294   0.000  0.00  0.00    +0.000 C 
ENDROOT
TORSDOF 0
REMARK  Name = molecules/QEEJLLNYQOBRRM-KSHGRFHLSA-N.pdb
REMARK                            x       y       z     vdW  Elec       q    Type
REMARK                         _______ _______ _______ _____ _____    ______ ____
ROOT
ATOM      1  C   LIG    1       -5.892  -9.696   0.000  0.00  0.00    -0.000 C 
ENDROOT
TORSDOF 0
REMARK  Name = molecules/QEEJLLNYQOBRRM-KSHGRFHLSA-N.pdb
REMARK                            x       y       z     vdW  Elec       q    Type
REMARK                         _______ _______ _______ _____ _____    ______ ____
ROOT
ATOM      1  C   LIG    1       -6.642  -8.397   0.000  0.00  0.00    +0.000 C 
ENDROOT
TORSDOF 0
REMARK  Name = molecules/QEEJLLNYQOBRRM-KSHGRFHLSA-N.pdb
REMARK                            x       y       z     vdW  Elec       q    Type
REMARK                         _______ _______ _______ _____ _____    ______ ____
ROOT
ATOM      1  C   LIG    1       -7.392  -7.098   0.000  0.00  0.00    +0.290 C 
ATOM      2  O   LIG    1       -8.892  -7.098   0.000  0.00  0.00    -0.198 OA
ATOM      3  N   LIG    1       -6.642  -5.799   0.000  0.00  0.00    -0.093 NA
ENDROOT
TORSDOF 0
REMARK  Name = molecules/QEEJLLNYQOBRRM-KSHGRFHLSA-N.pdb
REMARK                            x       y       z     vdW  Elec       q    Type
REMARK                         _______ _______ _______ _____ _____    ______ ____
ROOT
ATOM      1  C   LIG    1       -5.142 -10.995   0.000  0.00  0.00    +0.000 C 
ENDROOT
TORSDOF 0
REMARK  Name = molecules/QEEJLLNYQOBRRM-KSHGRFHLSA-N.pdb
REMARK                            x       y       z     vdW  Elec       q    Type
REMARK                         _______ _______ _______ _____ _____    ______ ____
ROOT
ATOM      1  O   HOH    1       -2.904 -12.111   0.000  0.00  0.00    -0.410 OA
ATOM      2  H   HOH    0       -3.541 -11.550   0.000  0.00  0.00    +0.205 HD
ATOM      3  H   HOH    0       -3.294 -12.696   0.000  0.00  0.00    +0.205 HD
ENDROOT
TORSDOF 0
REMARK  Name = molecules/QEEJLLNYQOBRRM-KSHGRFHLSA-N.pdb
REMARK                            x       y       z     vdW  Elec       q    Type
REMARK                         _______ _______ _______ _____ _____    ______ ____
ROOT
ATOM      1  C   LIG    1       -8.289 -17.142   0.000  0.00  0.00    +0.000 C 
ENDROOT
TORSDOF 0
REMARK  Name = molecules/QEEJLLNYQOBRRM-KSHGRFHLSA-N.pdb
REMARK                            x       y       z     vdW  Elec       q    Type
REMARK                         _______ _______ _______ _____ _____    ______ ____
ROOT
ATOM      1  C   LIG    1       -4.392 -14.892   0.000  0.00  0.00    +0.174 C 
ATOM      2  O   LIG    1       -5.316 -15.397   0.000  0.00  0.00    -0.348 OA
ATOM      3  C   LIG    1       -6.093 -15.240   0.000  0.00  0.00    +0.174 C 
ENDROOT
TORSDOF 0
REMARK  Name = molecules/QEEJLLNYQOBRRM-KSHGRFHLSA-N.pdb
REMARK                            x       y       z     vdW  Elec       q    Type
REMARK                         _______ _______ _______ _____ _____    ______ ____
ROOT
ATOM      1  C   LIG    1       -7.740 -15.093   0.000  0.00  0.00    -0.005 C 
ATOM      2  C   LIG    1       -7.392 -14.490   0.000  0.00  0.00    +0.005 C 
ENDROOT
TORSDOF 0
REMARK  Name = molecules/QEEJLLNYQOBRRM-KSHGRFHLSA-N.pdb
REMARK                            x       y       z     vdW  Elec       q    Type
REMARK                         _______ _______ _______ _____ _____    ______ ____
ROOT
ATOM      1  C   LIG    1       -6.990 -16.392   0.000  0.00  0.00    +0.000 C 
ENDROOT
TORSDOF 0
REMARK  Name = molecules/QEEJLLNYQOBRRM-KSHGRFHLSA-N.pdb
REMARK                            x       y       z     vdW  Elec       q    Type
REMARK                         _______ _______ _______ _____ _____    ______ ____
ROOT
ATOM      1  O   HOH    1       -1.612 -14.377   0.000  0.00  0.00    -0.253 OA
ATOM      2  H   HOH    0       -2.109 -13.960   0.000  0.00  0.00    +0.253 HD
ENDROOT
TORSDOF 0
REMARK  Name = molecules/QEEJLLNYQOBRRM-KSHGRFHLSA-N.pdb
REMARK                            x       y       z     vdW  Elec       q    Type
REMARK                         _______ _______ _______ _____ _____    ______ ____
ROOT
ATOM      1  C   LIG    1       -5.142 -13.191   0.000  0.00  0.00    +0.293 C 
ATOM      2  O   LIG    1       -5.460 -13.881   0.000  0.00  0.00    -0.293 OA
ENDROOT
TORSDOF 0
REMARK  Name = molecules/QEEJLLNYQOBRRM-KSHGRFHLSA-N.pdb
REMARK                            x       y       z     vdW  Elec       q    Type
REMARK                         _______ _______ _______ _____ _____    ______ ____
ROOT
ATOM      1  C   LIG    1       -3.642 -10.593   0.000  0.00  0.00    +0.000 C 
ENDROOT
TORSDOF 0
REMARK  Name = molecules/QEEJLLNYQOBRRM-KSHGRFHLSA-N.pdb
REMARK                            x       y       z     vdW  Elec       q    Type
REMARK                         _______ _______ _______ _____ _____    ______ ____
ROOT
ATOM      1  C   LIG    1       -4.392 -11.892   0.000  0.00  0.00    +0.000 C 
ENDROOT
TORSDOF 0
REMARK  Name = molecules/QEEJLLNYQOBRRM-KSHGRFHLSA-N.pdb
REMARK                            x       y       z     vdW  Elec       q    Type
REMARK                         _______ _______ _______ _____ _____    ______ ____
ROOT
ATOM      1  C   LIG    1       -8.691 -13.740   0.000  0.00  0.00    +0.005 C 
ATOM      2  C   LIG    1       -7.740 -14.289   0.000  0.00  0.00    -0.005 C 
ENDROOT
TORSDOF 0
REMARK  Name = molecules/QEEJLLNYQOBRRM-KSHGRFHLSA-N.pdb
REMARK                            x       y       z     vdW  Elec       q    Type
REMARK                         _______ _______ _______ _____ _____    ______ ____
ROOT
ATOM      1  C   LIG    1       -9.990 -12.990   0.000  0.00  0.00    -0.005 C 
ATOM      2  C   LIG    1       -9.039 -13.539   0.000  0.00  0.00    +0.005 C 
ENDROOT
TORSDOF 0
REMARK  Name = molecules/QEEJLLNYQOBRRM-KSHGRFHLSA-N.pdb
REMARK                            x       y       z     vdW  Elec       q    Type
REMARK                         _______ _______ _______ _____ _____    ______ ____
ROOT
ATOM      1  C   LIG    1      -11.289 -12.240   0.000  0.00  0.00    +0.368 C 
ATOM      2  O   LIG    1      -11.289 -10.740   0.000  0.00  0.00    -0.276 OA
ATOM      3  N   LIG    1      -12.588 -12.990   0.000  0.00  0.00    -0.092 NA
ENDROOT
TORSDOF 0
REMARK  Name = molecules/QEEJLLNYQOBRRM-KSHGRFHLSA-N.pdb
REMARK                            x       y       z     vdW  Elec       q    Type
REMARK                         _______ _______ _______ _____ _____    ______ ____
ROOT
ATOM      1  C   LIG    1       -4.044 -16.191   0.000  0.00  0.00    +0.279 C 
ATOM      2  O   LIG    1       -3.381 -15.909   0.000  0.00  0.00    -0.279 OA
ENDROOT
TORSDOF 0
REMARK  Name = molecules/QEEJLLNYQOBRRM-KSHGRFHLSA-N.pdb
REMARK                            x       y       z     vdW  Elec       q    Type
REMARK                         _______ _______ _______ _____ _____    ______ ____
ROOT
ATOM      1  C   LIG    1       -5.544 -18.789   0.000  0.00  0.00    +0.000 C 
ENDROOT
TORSDOF 0
REMARK  Name = molecules/QEEJLLNYQOBRRM-KSHGRFHLSA-N.pdb
REMARK                            x       y       z     vdW  Elec       q    Type
REMARK                         _______ _______ _______ _____ _____    ______ ____
ROOT
ATOM      1  C   LIG    1       -6.294 -20.088   0.000  0.00  0.00    +0.005 C 
ATOM      2  C   LIG    1       -6.843 -20.637   0.000  0.00  0.00    +0.001 C 
ATOM      3  C   LIG    1       -7.044 -21.387   0.000  0.00  0.00    -0.005 C 
ENDROOT
TORSDOF 0
REMARK  Name = molecules/QEEJLLNYQOBRRM-KSHGRFHLSA-N.pdb
REMARK                            x       y       z     vdW  Elec       q    Type
REMARK                         _______ _______ _______ _____ _____    ______ ____
ROOT
ATOM      1  N   LIG    1       -8.544 -21.387   0.000  0.00  0.00    -0.075 NA
ATOM      2  O   LIG    1       -9.523 -20.474   0.000  0.00  0.00    -0.104 OA
ATOM      3  H   LIG    1       -7.885 -21.716   0.000  0.00  0.00    +0.179 HD
ENDROOT
TORSDOF 0
REMARK  Name = molecules/QEEJLLNYQOBRRM-KSHGRFHLSA-N.pdb
REMARK                            x       y       z     vdW  Elec       q    Type
REMARK                         _______ _______ _______ _____ _____    ______ ____
ROOT
ATOM      1  O   HOH    1       -6.458 -22.768   0.000  0.00  0.00    -0.253 OA
ATOM      2  H   HOH    0       -5.779 -22.869   0.000  0.00  0.00    +0.253 HD
ENDROOT
TORSDOF 0
REMARK  Name = molecules/QEEJLLNYQOBRRM-KSHGRFHLSA-N.pdb
REMARK                            x       y       z     vdW  Elec       q    Type
REMARK                         _______ _______ _______ _____ _____    ______ ____
ROOT
ATOM      1  C   LIG    1       -4.794 -17.490   0.000  0.00  0.00    -0.000 C 
ENDROOT
TORSDOF 0
REMARK  Name = molecules/QEEJLLNYQOBRRM-KSHGRFHLSA-N.pdb
REMARK                            x       y       z     vdW  Elec       q    Type
REMARK                         _______ _______ _______ _____ _____    ______ ____
ROOT
ATOM      1  C   LIG    1       -0.495 -15.642   0.000  0.00  0.00    +0.000 C 
ATOM      2  C   LIG    1       -1.044 -16.191   0.000  0.00  0.00    +0.000 C 
ENDROOT
TORSDOF 0
REMARK  Name = molecules/QEEJLLNYQOBRRM-KSHGRFHLSA-N.pdb
REMARK                            x       y       z     vdW  Elec       q    Type
REMARK                         _______ _______ _______ _____ _____    ______ ____
ROOT
ATOM      1  C   LIG    1       -3.093 -14.142   0.000  0.00  0.00    +0.000 C 
ENDROOT
TORSDOF 0
REMARK  Name = molecules/QEEJLLNYQOBRRM-KSHGRFHLSA-N.pdb
REMARK                            x       y       z     vdW  Elec       q    Type
REMARK                         _______ _______ _______ _____ _____    ______ ____
ROOT
ATOM      1  C   LIG    1        1.353 -16.941   0.000  0.00  0.00    +0.000 C 
ENDROOT
TORSDOF 0
REMARK  Name = molecules/QEEJLLNYQOBRRM-KSHGRFHLSA-N.pdb
REMARK                            x       y       z     vdW  Elec       q    Type
REMARK                         _______ _______ _______ _____ _____    ______ ____
ROOT
ATOM      1  O   HOH    1       -0.147 -16.941   0.000  0.00  0.00    -0.253 OA
ATOM      2  H   HOH    0       -0.581 -17.618   0.000  0.00  0.00    +0.253 HD
ENDROOT
TORSDOF 0
REMARK  Name = molecules/QEEJLLNYQOBRRM-KSHGRFHLSA-N.pdb
REMARK                            x       y       z     vdW  Elec       q    Type
REMARK                         _______ _______ _______ _____ _____    ______ ____
ROOT
ATOM      1  C   LIG    1        0.054 -18.789   0.000  0.00  0.00    +0.176 C 
ATOM      2  O   LIG    1       -0.882 -19.584   0.000  0.00  0.00    -0.386 OA
ATOM      3  H   LIG    1       -1.465 -19.831   0.000  0.00  0.00    +0.210 HD
ENDROOT
TORSDOF 0
REMARK  Name = molecules/QEEJLLNYQOBRRM-KSHGRFHLSA-N.pdb
REMARK                            x       y       z     vdW  Elec       q    Type
REMARK                         _______ _______ _______ _____ _____    ______ ____
ROOT
ATOM      1  C   LIG    1        2.652 -20.289   0.000  0.00  0.00    -0.000 C 
ENDROOT
TORSDOF 0
REMARK  Name = molecules/QEEJLLNYQOBRRM-KSHGRFHLSA-N.pdb
REMARK                            x       y       z     vdW  Elec       q    Type
REMARK                         _______ _______ _______ _____ _____    ______ ____
ROOT
ATOM      1  C   LIG    1        1.353 -19.539   0.000  0.00  0.00    -0.000 C 
ENDROOT
TORSDOF 0
REMARK  Name = molecules/QEEJLLNYQOBRRM-KSHGRFHLSA-N.pdb
REMARK                            x       y       z     vdW  Elec       q    Type
REMARK                         _______ _______ _______ _____ _____    ______ ____
ROOT
ATOM      1  O   HOH    1        0.758 -17.465   0.000  0.00  0.00    -0.253 OA
ATOM      2  H   HOH    0        1.392 -17.299   0.000  0.00  0.00    +0.253 HD
ENDROOT
TORSDOF 0
REMARK  Name = molecules/QEEJLLNYQOBRRM-KSHGRFHLSA-N.pdb
REMARK                            x       y       z     vdW  Elec       q    Type
REMARK                         _______ _______ _______ _____ _____    ______ ____
ROOT
ATOM      1  C   LIG    1       -1.794 -17.490   0.000  0.00  0.00    +0.000 C 
ENDROOT
TORSDOF 0
REMARK  Name = molecules/QEEJLLNYQOBRRM-KSHGRFHLSA-N.pdb
REMARK                            x       y       z     vdW  Elec       q    Type
REMARK                         _______ _______ _______ _____ _____    ______ ____
ROOT
ATOM      1  C   LIG    1       -3.294 -20.088   0.000  0.00  0.00    +0.000 C 
ENDROOT
TORSDOF 0
REMARK  Name = molecules/QEEJLLNYQOBRRM-KSHGRFHLSA-N.pdb
REMARK                            x       y       z     vdW  Elec       q    Type
REMARK                         _______ _______ _______ _____ _____    ______ ____
ROOT
ATOM      1  C   LIG    1       -4.044 -21.387   0.000  0.00  0.00    +0.000 C 
ATOM      2  C   LIG    1       -4.245 -22.137   0.000  0.00  0.00    +0.000 C 
ENDROOT
TORSDOF 0
REMARK  Name = molecules/QEEJLLNYQOBRRM-KSHGRFHLSA-N.pdb
REMARK                            x       y       z     vdW  Elec       q    Type
REMARK                         _______ _______ _______ _____ _____    ______ ____
ROOT
ATOM      1  N   LIG    1       -5.544 -21.387   0.000  0.00  0.00    +0.000 NA
ENDROOT
TORSDOF 0
REMARK  Name = molecules/QEEJLLNYQOBRRM-KSHGRFHLSA-N.pdb
REMARK                            x       y       z     vdW  Elec       q    Type
REMARK                         _______ _______ _______ _____ _____    ______ ____
ROOT
ATOM      1  C   LIG    1       -2.544 -18.789   0.000  0.00  0.00    +0.000 C 
ENDROOT
TORSDOF 0
REMARK  Name = molecules/QEEJLLNYQOBRRM-KSHGRFHLSA-N.pdb
REMARK                            x       y       z     vdW  Elec       q    Type
REMARK                         _______ _______ _______ _____ _____    ______ ____
ROOT
ATOM      1  O   HOH    1       -3.267 -17.204   0.000  0.00  0.00    -0.253 OA
ATOM      2  H   HOH    0       -3.366 -16.539   0.000  0.00  0.00    +0.253 HD
ENDROOT
TORSDOF 0
REMARK  Name = molecules/QEEJLLNYQOBRRM-KSHGRFHLSA-N.pdb
REMARK                            x       y       z     vdW  Elec       q    Type
REMARK                         _______ _______ _______ _____ _____    ______ ____
ROOT
ATOM      1  C   LIG    1       -0.843 -15.441   0.000  0.00  0.00    -0.018 C 
ATOM      2  C   LIG    1       -0.294 -14.892   0.000  0.00  0.00    +0.018 C 
ENDROOT
TORSDOF 0
REMARK  Name = molecules/QEEJLLNYQOBRRM-KSHGRFHLSA-N.pdb
REMARK                            x       y       z     vdW  Elec       q    Type
REMARK                         _______ _______ _______ _____ _____    ______ ____
ROOT
ATOM      1  C   LIG    1        3.054 -17.691   0.000  0.00  0.00    -0.000 C 
ENDROOT
TORSDOF 0
REMARK  Name = molecules/QEEJLLNYQOBRRM-KSHGRFHLSA-N.pdb
REMARK                            x       y       z     vdW  Elec       q    Type
REMARK                         _______ _______ _______ _____ _____    ______ ____
ROOT
ATOM      1  C   LIG    1        6.951 -18.441   0.000  0.00  0.00    +0.000 C 
ENDROOT
TORSDOF 0
REMARK  Name = molecules/QEEJLLNYQOBRRM-KSHGRFHLSA-N.pdb
REMARK                            x       y       z     vdW  Elec       q    Type
REMARK                         _______ _______ _______ _____ _____    ______ ____
ROOT
ATOM      1  N   LIG    1        6.951 -16.941   0.000  0.00  0.00    -0.163 NA
ATOM      2  H   LIG    1        6.467 -16.249   0.000  0.00  0.00    +0.163 HD
ENDROOT
TORSDOF 0
REMARK  Name = molecules/QEEJLLNYQOBRRM-KSHGRFHLSA-N.pdb
REMARK                            x       y       z     vdW  Elec       q    Type
REMARK                         _______ _______ _______ _____ _____    ______ ____
ROOT
ATOM      1  C   LIG    1        0.456 -16.191   0.000  0.00  0.00    +0.000 C 
ENDROOT
TORSDOF 0
REMARK  Name = molecules/QEEJLLNYQOBRRM-KSHGRFHLSA-N.pdb
REMARK                            x       y       z     vdW  Elec       q    Type
REMARK                         _______ _______ _______ _____ _____    ______ ____
ROOT
ATOM      1  C   LIG    1       -2.892 -14.490   0.000  0.00  0.00    +0.000 C 
ENDROOT
TORSDOF 0
REMARK  Name = molecules/QEEJLLNYQOBRRM-KSHGRFHLSA-N.pdb
REMARK                            x       y       z     vdW  Elec       q    Type
REMARK                         _______ _______ _______ _____ _____    ______ ____
ROOT
ATOM      1  C   LIG    1       -1.392 -11.892   0.000  0.00  0.00    +0.000 C 
ENDROOT
TORSDOF 0
REMARK  Name = molecules/QEEJLLNYQOBRRM-KSHGRFHLSA-N.pdb
REMARK                            x       y       z     vdW  Elec       q    Type
REMARK                         _______ _______ _______ _____ _____    ______ ____
ROOT
ATOM      1  C   LIG    1       -3.843 -16.539   0.000  0.00  0.00    +0.000 C 
ENDROOT
TORSDOF 0
REMARK  Name = molecules/QEEJLLNYQOBRRM-KSHGRFHLSA-N.pdb
REMARK                            x       y       z     vdW  Elec       q    Type
REMARK                         _______ _______ _______ _____ _____    ______ ____
ROOT
ATOM      1  C   LIG    1       -5.142 -15.789   0.000  0.00  0.00    +0.000 C 
ENDROOT
TORSDOF 0
REMARK  Name = molecules/QEEJLLNYQOBRRM-KSHGRFHLSA-N.pdb
REMARK                            x       y       z     vdW  Elec       q    Type
REMARK                         _______ _______ _______ _____ _____    ______ ____
ROOT
ATOM      1  C   LIG    1       -6.990 -12.990   0.000  0.00  0.00    -0.000 C 
ENDROOT
TORSDOF 0
REMARK  Name = molecules/QEEJLLNYQOBRRM-KSHGRFHLSA-N.pdb
REMARK                            x       y       z     vdW  Elec       q    Type
REMARK                         _______ _______ _______ _____ _____    ______ ____
ROOT
ATOM      1  O   HOH    1       -2.645 -15.637   0.000  0.00  0.00    -0.253 OA
ATOM      2  H   HOH    0       -3.308 -15.649   0.000  0.00  0.00    +0.253 HD
ENDROOT
TORSDOF 0
REMARK  Name = molecules/QEEJLLNYQOBRRM-KSHGRFHLSA-N.pdb
REMARK                            x       y       z     vdW  Elec       q    Type
REMARK                         _______ _______ _______ _____ _____    ______ ____
ROOT
ATOM      1  C   LIG    1       -3.294 -20.088   0.000  0.00  0.00    +0.000 C 
ENDROOT
TORSDOF 0
REMARK  Name = molecules/QEEJLLNYQOBRRM-KSHGRFHLSA-N.pdb
REMARK                            x       y       z     vdW  Elec       q    Type
REMARK                         _______ _______ _______ _____ _____    ______ ____
ROOT
ATOM      1  C   LIG    1       -2.544 -18.789   0.000  0.00  0.00    +0.000 C 
ENDROOT
TORSDOF 0
REMARK  Name = molecules/QEEJLLNYQOBRRM-KSHGRFHLSA-N.pdb
REMARK                            x       y       z     vdW  Elec       q    Type
REMARK                         _______ _______ _______ _____ _____    ______ ____
ROOT
ATOM      1  O   HOH    1       -3.060 -21.570   0.000  0.00  0.00    +0.000 OA
ENDROOT
TORSDOF 0
REMARK  Name = molecules/QEEJLLNYQOBRRM-KSHGRFHLSA-N.pdb
REMARK                            x       y       z     vdW  Elec       q    Type
REMARK                         _______ _______ _______ _____ _____    ______ ____
ROOT
ATOM      1  C   LIG    1       -8.142 -19.887   0.000  0.00  0.00    +0.000 C 
ENDROOT
TORSDOF 0
REMARK  Name = molecules/QEEJLLNYQOBRRM-KSHGRFHLSA-N.pdb
REMARK                            x       y       z     vdW  Elec       q    Type
REMARK                         _______ _______ _______ _____ _____    ______ ____
ROOT
ATOM      1  O   HOH    1       -8.142 -18.387   0.000  0.00  0.00    +0.000 OA
ENDROOT
TORSDOF 0
REMARK  Name = molecules/QEEJLLNYQOBRRM-KSHGRFHLSA-N.pdb
REMARK                            x       y       z     vdW  Elec       q    Type
REMARK                         _______ _______ _______ _____ _____    ______ ____
ROOT
ATOM      1  C   LIG    1       -5.544 -21.387   0.000  0.00  0.00    -0.000 C 
ENDROOT
TORSDOF 0
REMARK  Name = molecules/QEEJLLNYQOBRRM-KSHGRFHLSA-N.pdb
REMARK                            x       y       z     vdW  Elec       q    Type
REMARK                         _______ _______ _______ _____ _____    ______ ____
ROOT
ATOM      1  O   HOH    1       -3.166 -21.095   0.000  0.00  0.00    -0.253 OA
ATOM      2  H   HOH    0       -3.986 -21.376   0.000  0.00  0.00    +0.253 HD
ENDROOT
TORSDOF 0
REMARK  Name = molecules/QEEJLLNYQOBRRM-KSHGRFHLSA-N.pdb
REMARK                            x       y       z     vdW  Elec       q    Type
REMARK                         _______ _______ _______ _____ _____    ______ ____
ROOT
ATOM      1  C   LIG    1       -3.696 -25.686   0.000  0.00  0.00    -0.006 C 
ATOM      2  C   LIG    1       -4.995 -24.936   0.000  0.00  0.00    +0.004 C 
ATOM      3  C   LIG    1       -2.946 -24.387   0.000  0.00  0.00    -0.006 C 
ATOM      4  C   LIG    1       -4.446 -26.986   0.000  0.00  0.00    +0.008 C 
ENDROOT
TORSDOF 0
REMARK  Name = molecules/QEEJLLNYQOBRRM-KSHGRFHLSA-N.pdb
REMARK                            x       y       z     vdW  Elec       q    Type
REMARK                         _______ _______ _______ _____ _____    ______ ____
ROOT
ATOM      1  C   LIG    1       -6.294 -24.186   0.000  0.00  0.00    +0.000 C 
ENDROOT
TORSDOF 0
REMARK  Name = molecules/QEEJLLNYQOBRRM-KSHGRFHLSA-N.pdb
REMARK                            x       y       z     vdW  Elec       q    Type
REMARK                         _______ _______ _______ _____ _____    ______ ____
ROOT
ATOM      1  C   LIG    1       -1.245 -21.039   0.000  0.00  0.00    +0.000 C 
ENDROOT
TORSDOF 0
REMARK  Name = molecules/QEEJLLNYQOBRRM-KSHGRFHLSA-N.pdb
REMARK                            x       y       z     vdW  Elec       q    Type
REMARK                         _______ _______ _______ _____ _____    ______ ____
ROOT
ATOM      1  C   LIG    1        1.353 -22.539   0.000  0.00  0.00    +0.000 C 
ENDROOT
TORSDOF 0
REMARK  Name = molecules/QEEJLLNYQOBRRM-KSHGRFHLSA-N.pdb
REMARK                            x       y       z     vdW  Elec       q    Type
REMARK                         _______ _______ _______ _____ _____    ______ ____
ROOT
ATOM      1  C   LIG    1        0.054 -21.789   0.000  0.00  0.00    +0.000 C 
ENDROOT
TORSDOF 0
REMARK  Name = molecules/QEEJLLNYQOBRRM-KSHGRFHLSA-N.pdb
REMARK                            x       y       z     vdW  Elec       q    Type
REMARK                         _______ _______ _______ _____ _____    ______ ____
ROOT
ATOM      1  H   UNK    1       21.169   8.391   0.000  0.00  0.00    +0.000 HD
ENDROOT
TORSDOF 0
REMARK  Name = molecules/QEEJLLNYQOBRRM-KSHGRFHLSA-N.pdb
REMARK                            x       y       z     vdW  Elec       q    Type
REMARK                         _______ _______ _______ _____ _____    ______ ____
ROOT
ATOM      1  H   UNK    1        5.635  -2.893   0.000  0.00  0.00    +0.000 HD
ENDROOT
TORSDOF 0
REMARK  Name = molecules/QEEJLLNYQOBRRM-KSHGRFHLSA-N.pdb
REMARK                            x       y       z     vdW  Elec       q    Type
REMARK                         _______ _______ _______ _____ _____    ______ ____
ROOT
ATOM      1  H   UNK    1        3.402 -10.794   0.000  0.00  0.00    +0.000 HD
ENDROOT
TORSDOF 0
REMARK  Name = molecules/QEEJLLNYQOBRRM-KSHGRFHLSA-N.pdb
REMARK                            x       y       z     vdW  Elec       q    Type
REMARK                         _______ _______ _______ _____ _____    ______ ____
ROOT
ATOM      1  H   UNK    1        5.795 -14.757   0.000  0.00  0.00    +0.000 HD
ENDROOT
TORSDOF 0
REMARK  Name = molecules/QEEJLLNYQOBRRM-KSHGRFHLSA-N.pdb
REMARK                            x       y       z     vdW  Elec       q    Type
REMARK                         _______ _______ _______ _____ _____    ______ ____
ROOT
ATOM      1  H   UNK    1       -0.348  -3.897   0.000  0.00  0.00    +0.000 HD
ENDROOT
TORSDOF 0
REMARK  Name = molecules/QEEJLLNYQOBRRM-KSHGRFHLSA-N.pdb
REMARK                            x       y       z     vdW  Elec       q    Type
REMARK                         _______ _______ _______ _____ _____    ______ ____
ROOT
ATOM      1  H   UNK    1       -0.696  -4.098   0.000  0.00  0.00    +0.000 HD
ENDROOT
TORSDOF 0
REMARK  Name = molecules/QEEJLLNYQOBRRM-KSHGRFHLSA-N.pdb
REMARK                            x       y       z     vdW  Elec       q    Type
REMARK                         _______ _______ _______ _____ _____    ______ ____
ROOT
ATOM      1  H   UNK    1       -4.548  -8.921   0.000  0.00  0.00    +0.000 HD
ENDROOT
TORSDOF 0
REMARK  Name = molecules/QEEJLLNYQOBRRM-KSHGRFHLSA-N.pdb
REMARK                            x       y       z     vdW  Elec       q    Type
REMARK                         _______ _______ _______ _____ _____    ______ ____
ROOT
ATOM      1  H   UNK    1       -6.598 -13.230   0.000  0.00  0.00    +0.000 HD
ENDROOT
TORSDOF 0
REMARK  Name = molecules/QEEJLLNYQOBRRM-KSHGRFHLSA-N.pdb
REMARK                            x       y       z     vdW  Elec       q    Type
REMARK                         _______ _______ _______ _____ _____    ______ ____
ROOT
ATOM      1  H   UNK    1       -2.299 -11.370   0.000  0.00  0.00    +0.000 HD
ENDROOT
TORSDOF 0
REMARK  Name = molecules/QEEJLLNYQOBRRM-KSHGRFHLSA-N.pdb
REMARK                            x       y       z     vdW  Elec       q    Type
REMARK                         _______ _______ _______ _____ _____    ______ ____
ROOT
ATOM      1  H   UNK    1       -1.428 -21.028   0.000  0.00  0.00    +0.000 HD
ENDROOT
TORSDOF 0
REMARK  Name = molecules/QEEJLLNYQOBRRM-KSHGRFHLSA-N.pdb
REMARK                            x       y       z     vdW  Elec       q    Type
REMARK                         _______ _______ _______ _____ _____    ______ ____
ROOT
ATOM      1  H   UNK    1       -5.041 -18.942   0.000  0.00  0.00    +0.000 HD
ENDROOT
TORSDOF 0
REMARK  Name = molecules/QEEJLLNYQOBRRM-KSHGRFHLSA-N.pdb
REMARK                            x       y       z     vdW  Elec       q    Type
REMARK                         _______ _______ _______ _____ _____    ______ ____
ROOT
ATOM      1  H   UNK    1       -0.110 -24.469   0.000  0.00  0.00    +0.000 HD
ENDROOT
TORSDOF 0
REMARK  Name = molecules/QEEJLLNYQOBRRM-KSHGRFHLSA-N.pdb
REMARK                            x       y       z     vdW  Elec       q    Type
REMARK                         _______ _______ _______ _____ _____    ______ ____
ROOT
ATOM      1  H   UNK    1       22.827  10.623   0.000  0.00  0.00    +0.000 HD
ENDROOT
TORSDOF 0
REMARK  Name = molecules/QEEJLLNYQOBRRM-KSHGRFHLSA-N.pdb
REMARK                            x       y       z     vdW  Elec       q    Type
REMARK                         _______ _______ _______ _____ _____    ______ ____
ROOT
ATOM      1  H   UNK    1       17.283   2.627   0.000  0.00  0.00    +0.000 HD
ENDROOT
TORSDOF 0
REMARK  Name = molecules/QEEJLLNYQOBRRM-KSHGRFHLSA-N.pdb
REMARK                            x       y       z     vdW  Elec       q    Type
REMARK                         _______ _______ _______ _____ _____    ______ ____
ROOT
ATOM      1  H   UNK    1       15.033   3.926   0.000  0.00  0.00    +0.000 HD
ENDROOT
TORSDOF 0
REMARK  Name = molecules/QEEJLLNYQOBRRM-KSHGRFHLSA-N.pdb
REMARK                            x       y       z     vdW  Elec       q    Type
REMARK                         _______ _______ _______ _____ _____    ______ ____
ROOT
ATOM      1  H   UNK    1       17.229  16.221   0.000  0.00  0.00    +0.000 HD
ENDROOT
TORSDOF 0
REMARK  Name = molecules/QEEJLLNYQOBRRM-KSHGRFHLSA-N.pdb
REMARK                            x       y       z     vdW  Elec       q    Type
REMARK                         _______ _______ _______ _____ _____    ______ ____
ROOT
ATOM      1  H   UNK    1       11.620  13.163   0.000  0.00  0.00    +0.000 HD
ENDROOT
TORSDOF 0
REMARK  Name = molecules/QEEJLLNYQOBRRM-KSHGRFHLSA-N.pdb
REMARK                            x       y       z     vdW  Elec       q    Type
REMARK                         _______ _______ _______ _____ _____    ______ ____
ROOT
ATOM      1  H   UNK    1       12.935   7.594   0.000  0.00  0.00    +0.000 HD
ENDROOT
TORSDOF 0
REMARK  Name = molecules/QEEJLLNYQOBRRM-KSHGRFHLSA-N.pdb
REMARK                            x       y       z     vdW  Elec       q    Type
REMARK                         _______ _______ _______ _____ _____    ______ ____
ROOT
ATOM      1  H   UNK    1        6.195   9.394   0.000  0.00  0.00    +0.000 HD
ENDROOT
TORSDOF 0
REMARK  Name = molecules/QEEJLLNYQOBRRM-KSHGRFHLSA-N.pdb
REMARK                            x       y       z     vdW  Elec       q    Type
REMARK                         _______ _______ _______ _____ _____    ______ ____
ROOT
ATOM      1  H   UNK    1        5.799   7.446   0.000  0.00  0.00    +0.000 HD
ENDROOT
TORSDOF 0
REMARK  Name = molecules/QEEJLLNYQOBRRM-KSHGRFHLSA-N.pdb
REMARK                            x       y       z     vdW  Elec       q    Type
REMARK                         _______ _______ _______ _____ _____    ______ ____
ROOT
ATOM      1  H   UNK    1        8.244   8.845   0.000  0.00  0.00    +0.000 HD
ENDROOT
TORSDOF 0
REMARK  Name = molecules/QEEJLLNYQOBRRM-KSHGRFHLSA-N.pdb
REMARK                            x       y       z     vdW  Elec       q    Type
REMARK                         _______ _______ _______ _____ _____    ______ ____
ROOT
ATOM      1  H   UNK    1       13.245   2.451   0.000  0.00  0.00    +0.000 HD
ENDROOT
TORSDOF 0
REMARK  Name = molecules/QEEJLLNYQOBRRM-KSHGRFHLSA-N.pdb
REMARK                            x       y       z     vdW  Elec       q    Type
REMARK                         _______ _______ _______ _____ _____    ______ ____
ROOT
ATOM      1  H   UNK    1        5.369  -1.885   0.000  0.00  0.00    +0.000 HD
ENDROOT
TORSDOF 0
REMARK  Name = molecules/QEEJLLNYQOBRRM-KSHGRFHLSA-N.pdb
REMARK                            x       y       z     vdW  Elec       q    Type
REMARK                         _______ _______ _______ _____ _____    ______ ____
ROOT
ATOM      1  H   UNK    1       11.397  -1.446   0.000  0.00  0.00    +0.000 HD
ENDROOT
TORSDOF 0
REMARK  Name = molecules/QEEJLLNYQOBRRM-KSHGRFHLSA-N.pdb
REMARK                            x       y       z     vdW  Elec       q    Type
REMARK                         _______ _______ _______ _____ _____    ______ ____
ROOT
ATOM      1  H   UNK    1        8.086  -6.577   0.000  0.00  0.00    +0.000 HD
ENDROOT
TORSDOF 0
REMARK  Name = molecules/QEEJLLNYQOBRRM-KSHGRFHLSA-N.pdb
REMARK                            x       y       z     vdW  Elec       q    Type
REMARK                         _______ _______ _______ _____ _____    ______ ____
ROOT
ATOM      1  H   UNK    1        3.704  -9.099   0.000  0.00  0.00    +0.000 HD
ENDROOT
TORSDOF 0
REMARK  Name = molecules/QEEJLLNYQOBRRM-KSHGRFHLSA-N.pdb
REMARK                            x       y       z     vdW  Elec       q    Type
REMARK                         _______ _______ _______ _____ _____    ______ ____
ROOT
ATOM      1  H   UNK    1        9.190 -12.825   0.000  0.00  0.00    +0.000 HD
ENDROOT
TORSDOF 0
REMARK  Name = molecules/QEEJLLNYQOBRRM-KSHGRFHLSA-N.pdb
REMARK                            x       y       z     vdW  Elec       q    Type
REMARK                         _______ _______ _______ _____ _____    ______ ____
ROOT
ATOM      1  H   UNK    1        9.549  -9.843   0.000  0.00  0.00    +0.000 HD
ENDROOT
TORSDOF 0
REMARK  Name = molecules/QEEJLLNYQOBRRM-KSHGRFHLSA-N.pdb
REMARK                            x       y       z     vdW  Elec       q    Type
REMARK                         _______ _______ _______ _____ _____    ______ ____
ROOT
ATOM      1  H   UNK    1        9.153 -11.791   0.000  0.00  0.00    +0.000 HD
ENDROOT
TORSDOF 0
REMARK  Name = molecules/QEEJLLNYQOBRRM-KSHGRFHLSA-N.pdb
REMARK                            x       y       z     vdW  Elec       q    Type
REMARK                         _______ _______ _______ _____ _____    ______ ____
ROOT
ATOM      1  H   UNK    1        3.804 -21.588   0.000  0.00  0.00    +0.000 HD
ENDROOT
TORSDOF 0
REMARK  Name = molecules/QEEJLLNYQOBRRM-KSHGRFHLSA-N.pdb
REMARK                            x       y       z     vdW  Elec       q    Type
REMARK                         _______ _______ _______ _____ _____    ______ ____
ROOT
ATOM      1  H   UNK    1        8.259 -19.353   0.000  0.00  0.00    +0.000 HD
ENDROOT
TORSDOF 0
REMARK  Name = molecules/QEEJLLNYQOBRRM-KSHGRFHLSA-N.pdb
REMARK                            x       y       z     vdW  Elec       q    Type
REMARK                         _______ _______ _______ _____ _____    ______ ____
ROOT
ATOM      1  H   UNK    1        4.962 -11.080   0.000  0.00  0.00    +0.000 HD
ENDROOT
TORSDOF 0
REMARK  Name = molecules/QEEJLLNYQOBRRM-KSHGRFHLSA-N.pdb
REMARK                            x       y       z     vdW  Elec       q    Type
REMARK                         _______ _______ _______ _____ _____    ______ ____
ROOT
ATOM      1  H   UNK    1        4.075  -7.072   0.000  0.00  0.00    +0.000 HD
ENDROOT
TORSDOF 0
REMARK  Name = molecules/QEEJLLNYQOBRRM-KSHGRFHLSA-N.pdb
REMARK                            x       y       z     vdW  Elec       q    Type
REMARK                         _______ _______ _______ _____ _____    ______ ____
ROOT
ATOM      1  H   UNK    1        1.718  -9.815   0.000  0.00  0.00    +0.000 HD
ENDROOT
TORSDOF 0
REMARK  Name = molecules/QEEJLLNYQOBRRM-KSHGRFHLSA-N.pdb
REMARK                            x       y       z     vdW  Elec       q    Type
REMARK                         _______ _______ _______ _____ _____    ______ ____
ROOT
ATOM      1  H   UNK    1       -4.593  -6.750   0.000  0.00  0.00    +0.000 HD
ENDROOT
TORSDOF 0
REMARK  Name = molecules/QEEJLLNYQOBRRM-KSHGRFHLSA-N.pdb
REMARK                            x       y       z     vdW  Elec       q    Type
REMARK                         _______ _______ _______ _____ _____    ______ ____
ROOT
ATOM      1  H   UNK    1       -5.285  -8.462   0.000  0.00  0.00    +0.000 HD
ENDROOT
TORSDOF 0
REMARK  Name = molecules/QEEJLLNYQOBRRM-KSHGRFHLSA-N.pdb
REMARK                            x       y       z     vdW  Elec       q    Type
REMARK                         _______ _______ _______ _____ _____    ______ ____
ROOT
ATOM      1  H   UNK    1       -0.963 -10.061   0.000  0.00  0.00    +0.000 HD
ENDROOT
TORSDOF 0
REMARK  Name = molecules/QEEJLLNYQOBRRM-KSHGRFHLSA-N.pdb
REMARK                            x       y       z     vdW  Elec       q    Type
REMARK                         _______ _______ _______ _____ _____    ______ ____
ROOT
ATOM      1  H   UNK    1       -2.974 -12.532   0.000  0.00  0.00    +0.000 HD
ENDROOT
TORSDOF 0
REMARK  Name = molecules/QEEJLLNYQOBRRM-KSHGRFHLSA-N.pdb
REMARK                            x       y       z     vdW  Elec       q    Type
REMARK                         _______ _______ _______ _____ _____    ______ ____
ROOT
ATOM      1  H   UNK    1       -6.121 -18.679   0.000  0.00  0.00    +0.000 HD
ENDROOT
TORSDOF 0
REMARK  Name = molecules/QEEJLLNYQOBRRM-KSHGRFHLSA-N.pdb
REMARK                            x       y       z     vdW  Elec       q    Type
REMARK                         _______ _______ _______ _____ _____    ______ ____
ROOT
ATOM      1  H   UNK    1       -1.612 -17.600   0.000  0.00  0.00    +0.000 HD
ENDROOT
TORSDOF 0
REMARK  Name = molecules/QEEJLLNYQOBRRM-KSHGRFHLSA-N.pdb
REMARK                            x       y       z     vdW  Elec       q    Type
REMARK                         _______ _______ _______ _____ _____    ______ ____
ROOT
ATOM      1  H   UNK    1        5.185 -15.806   0.000  0.00  0.00    +0.000 HD
ENDROOT
TORSDOF 0
REMARK  Name = molecules/QEEJLLNYQOBRRM-KSHGRFHLSA-N.pdb
REMARK                            x       y       z     vdW  Elec       q    Type
REMARK                         _______ _______ _______ _____ _____    ______ ____
ROOT
ATOM      1  H   UNK    1        3.759 -18.963   0.000  0.00  0.00    +0.000 HD
ENDROOT
TORSDOF 0
REMARK  Name = molecules/QEEJLLNYQOBRRM-KSHGRFHLSA-N.pdb
REMARK                            x       y       z     vdW  Elec       q    Type
REMARK                         _______ _______ _______ _____ _____    ______ ____
ROOT
ATOM      1  H   UNK    1        3.218 -22.969   0.000  0.00  0.00    +0.000 HD
ENDROOT
TORSDOF 0
REMARK  Name = molecules/QEEJLLNYQOBRRM-KSHGRFHLSA-N.pdb
REMARK                            x       y       z     vdW  Elec       q    Type
REMARK                         _______ _______ _______ _____ _____    ______ ____
ROOT
ATOM      1  H   UNK    1        3.218 -20.208   0.000  0.00  0.00    +0.000 HD
ENDROOT
TORSDOF 0
REMARK  Name = molecules/QEEJLLNYQOBRRM-KSHGRFHLSA-N.pdb
REMARK                            x       y       z     vdW  Elec       q    Type
REMARK                         _______ _______ _______ _____ _____    ______ ____
ROOT
ATOM      1  H   UNK    1        5.304 -24.186   0.000  0.00  0.00    +0.000 HD
ENDROOT
TORSDOF 0
REMARK  Name = molecules/QEEJLLNYQOBRRM-KSHGRFHLSA-N.pdb
REMARK                            x       y       z     vdW  Elec       q    Type
REMARK                         _______ _______ _______ _____ _____    ______ ____
ROOT
ATOM      1  H   UNK    1        4.535 -14.859   0.000  0.00  0.00    +0.000 HD
ENDROOT
TORSDOF 0
REMARK  Name = molecules/QEEJLLNYQOBRRM-KSHGRFHLSA-N.pdb
REMARK                            x       y       z     vdW  Elec       q    Type
REMARK                         _______ _______ _______ _____ _____    ______ ____
ROOT
ATOM      1  H   UNK    1       -1.831 -11.864   0.000  0.00  0.00    +0.000 HD
ENDROOT
TORSDOF 0
REMARK  Name = molecules/QEEJLLNYQOBRRM-KSHGRFHLSA-N.pdb
REMARK                            x       y       z     vdW  Elec       q    Type
REMARK                         _______ _______ _______ _____ _____    ______ ____
ROOT
ATOM      1  H   UNK    1        0.002 -10.996   0.000  0.00  0.00    +0.000 HD
ENDROOT
TORSDOF 0
REMARK  Name = molecules/QEEJLLNYQOBRRM-KSHGRFHLSA-N.pdb
REMARK                            x       y       z     vdW  Elec       q    Type
REMARK                         _______ _______ _______ _____ _____    ______ ____
ROOT
ATOM      1  H   UNK    1        2.853 -12.843   0.000  0.00  0.00    +0.000 HD
ENDROOT
TORSDOF 0
REMARK  Name = molecules/QEEJLLNYQOBRRM-KSHGRFHLSA-N.pdb
REMARK                            x       y       z     vdW  Elec       q    Type
REMARK                         _______ _______ _______ _____ _____    ______ ____
ROOT
ATOM      1  H   UNK    1        4.094  -9.082   0.000  0.00  0.00    +0.000 HD
ENDROOT
TORSDOF 0
REMARK  Name = molecules/QEEJLLNYQOBRRM-KSHGRFHLSA-N.pdb
REMARK                            x       y       z     vdW  Elec       q    Type
REMARK                         _______ _______ _______ _____ _____    ______ ____
ROOT
ATOM      1  H   UNK    1        1.640 -12.971   0.000  0.00  0.00    +0.000 HD
ENDROOT
TORSDOF 0
REMARK  Name = molecules/QEEJLLNYQOBRRM-KSHGRFHLSA-N.pdb
REMARK                            x       y       z     vdW  Elec       q    Type
REMARK                         _______ _______ _______ _____ _____    ______ ____
ROOT
ATOM      1  H   UNK    1        0.676 -11.081   0.000  0.00  0.00    +0.000 HD
ENDROOT
TORSDOF 0
REMARK  Name = molecules/QEEJLLNYQOBRRM-KSHGRFHLSA-N.pdb
REMARK                            x       y       z     vdW  Elec       q    Type
REMARK                         _______ _______ _______ _____ _____    ______ ____
ROOT
ATOM      1  H   UNK    1       -3.659 -10.528   0.000  0.00  0.00    +0.000 HD
ENDROOT
TORSDOF 0
REMARK  Name = molecules/QEEJLLNYQOBRRM-KSHGRFHLSA-N.pdb
REMARK                            x       y       z     vdW  Elec       q    Type
REMARK                         _______ _______ _______ _____ _____    ______ ____
ROOT
ATOM      1  H   UNK    1       -0.605  -8.726   0.000  0.00  0.00    +0.000 HD
ENDROOT
TORSDOF 0
REMARK  Name = molecules/QEEJLLNYQOBRRM-KSHGRFHLSA-N.pdb
REMARK                            x       y       z     vdW  Elec       q    Type
REMARK                         _______ _______ _______ _____ _____    ______ ____
ROOT
ATOM      1  H   UNK    1        0.119  -3.184   0.000  0.00  0.00    +0.000 HD
ENDROOT
TORSDOF 0
REMARK  Name = molecules/QEEJLLNYQOBRRM-KSHGRFHLSA-N.pdb
REMARK                            x       y       z     vdW  Elec       q    Type
REMARK                         _______ _______ _______ _____ _____    ______ ____
ROOT
ATOM      1  H   UNK    1        2.250   1.299   0.000  0.00  0.00    +0.000 HD
ENDROOT
TORSDOF 0
REMARK  Name = molecules/QEEJLLNYQOBRRM-KSHGRFHLSA-N.pdb
REMARK                            x       y       z     vdW  Elec       q    Type
REMARK                         _______ _______ _______ _____ _____    ______ ____
ROOT
ATOM      1  H   UNK    1        3.329  -2.855   0.000  0.00  0.00    +0.000 HD
ENDROOT
TORSDOF 0
REMARK  Name = molecules/QEEJLLNYQOBRRM-KSHGRFHLSA-N.pdb
REMARK                            x       y       z     vdW  Elec       q    Type
REMARK                         _______ _______ _______ _____ _____    ______ ____
ROOT
ATOM      1  H   UNK    1        8.751  -6.193   0.000  0.00  0.00    +0.000 HD
ENDROOT
TORSDOF 0
REMARK  Name = molecules/QEEJLLNYQOBRRM-KSHGRFHLSA-N.pdb
REMARK                            x       y       z     vdW  Elec       q    Type
REMARK                         _______ _______ _______ _____ _____    ______ ____
ROOT
ATOM      1  H   UNK    1        5.646  -4.547   0.000  0.00  0.00    +0.000 HD
ENDROOT
TORSDOF 0
REMARK  Name = molecules/QEEJLLNYQOBRRM-KSHGRFHLSA-N.pdb
REMARK                            x       y       z     vdW  Elec       q    Type
REMARK                         _______ _______ _______ _____ _____    ______ ____
ROOT
ATOM      1  H   UNK    1        6.522  -7.290   0.000  0.00  0.00    +0.000 HD
ENDROOT
TORSDOF 0
REMARK  Name = molecules/QEEJLLNYQOBRRM-KSHGRFHLSA-N.pdb
REMARK                            x       y       z     vdW  Elec       q    Type
REMARK                         _______ _______ _______ _____ _____    ______ ____
ROOT
ATOM      1  H   UNK    1       11.745  -5.745   0.000  0.00  0.00    +0.000 HD
ENDROOT
TORSDOF 0
REMARK  Name = molecules/QEEJLLNYQOBRRM-KSHGRFHLSA-N.pdb
REMARK                            x       y       z     vdW  Elec       q    Type
REMARK                         _______ _______ _______ _____ _____    ______ ____
ROOT
ATOM      1  H   UNK    1        9.860  -6.376   0.000  0.00  0.00    +0.000 HD
ENDROOT
TORSDOF 0
REMARK  Name = molecules/QEEJLLNYQOBRRM-KSHGRFHLSA-N.pdb
REMARK                            x       y       z     vdW  Elec       q    Type
REMARK                         _______ _______ _______ _____ _____    ______ ____
ROOT
ATOM      1  H   UNK    1        5.318 -13.037   0.000  0.00  0.00    +0.000 HD
ENDROOT
TORSDOF 0
REMARK  Name = molecules/QEEJLLNYQOBRRM-KSHGRFHLSA-N.pdb
REMARK                            x       y       z     vdW  Elec       q    Type
REMARK                         _______ _______ _______ _____ _____    ______ ____
ROOT
ATOM      1  H   UNK    1        4.896  -2.150   0.000  0.00  0.00    +0.000 HD
ENDROOT
TORSDOF 0
REMARK  Name = molecules/QEEJLLNYQOBRRM-KSHGRFHLSA-N.pdb
REMARK                            x       y       z     vdW  Elec       q    Type
REMARK                         _______ _______ _______ _____ _____    ______ ____
ROOT
ATOM      1  H   UNK    1        5.859  -4.732   0.000  0.00  0.00    +0.000 HD
ENDROOT
TORSDOF 0
REMARK  Name = molecules/QEEJLLNYQOBRRM-KSHGRFHLSA-N.pdb
REMARK                            x       y       z     vdW  Elec       q    Type
REMARK                         _______ _______ _______ _____ _____    ______ ____
ROOT
ATOM      1  H   UNK    1        4.087  -2.656   0.000  0.00  0.00    +0.000 HD
ENDROOT
TORSDOF 0
REMARK  Name = molecules/QEEJLLNYQOBRRM-KSHGRFHLSA-N.pdb
REMARK                            x       y       z     vdW  Elec       q    Type
REMARK                         _______ _______ _______ _____ _____    ______ ____
ROOT
ATOM      1  H   UNK    1        0.860  -4.519   0.000  0.00  0.00    +0.000 HD
ENDROOT
TORSDOF 0
REMARK  Name = molecules/QEEJLLNYQOBRRM-KSHGRFHLSA-N.pdb
REMARK                            x       y       z     vdW  Elec       q    Type
REMARK                         _______ _______ _______ _____ _____    ______ ____
ROOT
ATOM      1  H   UNK    1        9.879  -2.083   0.000  0.00  0.00    +0.000 HD
ENDROOT
TORSDOF 0
REMARK  Name = molecules/QEEJLLNYQOBRRM-KSHGRFHLSA-N.pdb
REMARK                            x       y       z     vdW  Elec       q    Type
REMARK                         _______ _______ _______ _____ _____    ______ ____
ROOT
ATOM      1  H   UNK    1       -3.437  -6.761   0.000  0.00  0.00    +0.000 HD
ENDROOT
TORSDOF 0
REMARK  Name = molecules/QEEJLLNYQOBRRM-KSHGRFHLSA-N.pdb
REMARK                            x       y       z     vdW  Elec       q    Type
REMARK                         _______ _______ _______ _____ _____    ______ ____
ROOT
ATOM      1  H   UNK    1       -0.181  -8.014   0.000  0.00  0.00    +0.000 HD
ENDROOT
TORSDOF 0
REMARK  Name = molecules/QEEJLLNYQOBRRM-KSHGRFHLSA-N.pdb
REMARK                            x       y       z     vdW  Elec       q    Type
REMARK                         _______ _______ _______ _____ _____    ______ ____
ROOT
ATOM      1  H   UNK    1        0.288 -10.977   0.000  0.00  0.00    +0.000 HD
ENDROOT
TORSDOF 0
REMARK  Name = molecules/QEEJLLNYQOBRRM-KSHGRFHLSA-N.pdb
REMARK                            x       y       z     vdW  Elec       q    Type
REMARK                         _______ _______ _______ _____ _____    ______ ____
ROOT
ATOM      1  H   UNK    1       -0.079 -11.189   0.000  0.00  0.00    +0.000 HD
ENDROOT
TORSDOF 0
REMARK  Name = molecules/QEEJLLNYQOBRRM-KSHGRFHLSA-N.pdb
REMARK                            x       y       z     vdW  Elec       q    Type
REMARK                         _______ _______ _______ _____ _____    ______ ____
ROOT
ATOM      1  H   UNK    1       -5.259  -8.337   0.000  0.00  0.00    +0.000 HD
ENDROOT
TORSDOF 0
REMARK  Name = molecules/QEEJLLNYQOBRRM-KSHGRFHLSA-N.pdb
REMARK                            x       y       z     vdW  Elec       q    Type
REMARK                         _______ _______ _______ _____ _____    ______ ____
ROOT
ATOM      1  H   UNK    1       -7.191 -10.446   0.000  0.00  0.00    +0.000 HD
ENDROOT
TORSDOF 0
REMARK  Name = molecules/QEEJLLNYQOBRRM-KSHGRFHLSA-N.pdb
REMARK                            x       y       z     vdW  Elec       q    Type
REMARK                         _______ _______ _______ _____ _____    ______ ____
ROOT
ATOM      1  H   UNK    1       -7.941  -9.147   0.000  0.00  0.00    +0.000 HD
ENDROOT
TORSDOF 0
REMARK  Name = molecules/QEEJLLNYQOBRRM-KSHGRFHLSA-N.pdb
REMARK                            x       y       z     vdW  Elec       q    Type
REMARK                         _______ _______ _______ _____ _____    ______ ____
ROOT
ATOM      1  H   UNK    1       -5.444  -7.494   0.000  0.00  0.00    +0.000 HD
ENDROOT
TORSDOF 0
REMARK  Name = molecules/QEEJLLNYQOBRRM-KSHGRFHLSA-N.pdb
REMARK                            x       y       z     vdW  Elec       q    Type
REMARK                         _______ _______ _______ _____ _____    ______ ____
ROOT
ATOM      1  H   UNK    1       -7.392  -4.500   0.000  0.00  0.00    +0.000 HD
ENDROOT
TORSDOF 0
REMARK  Name = molecules/QEEJLLNYQOBRRM-KSHGRFHLSA-N.pdb
REMARK                            x       y       z     vdW  Elec       q    Type
REMARK                         _______ _______ _______ _____ _____    ______ ____
ROOT
ATOM      1  H   UNK    1       -5.142  -5.799   0.000  0.00  0.00    +0.000 HD
ENDROOT
TORSDOF 0
REMARK  Name = molecules/QEEJLLNYQOBRRM-KSHGRFHLSA-N.pdb
REMARK                            x       y       z     vdW  Elec       q    Type
REMARK                         _______ _______ _______ _____ _____    ______ ____
ROOT
ATOM      1  H   UNK    1       -6.523 -11.581   0.000  0.00  0.00    +0.000 HD
ENDROOT
TORSDOF 0
REMARK  Name = molecules/QEEJLLNYQOBRRM-KSHGRFHLSA-N.pdb
REMARK                            x       y       z     vdW  Elec       q    Type
REMARK                         _______ _______ _______ _____ _____    ______ ____
ROOT
ATOM      1  H   UNK    1       -9.670 -17.728   0.000  0.00  0.00    +0.000 HD
ENDROOT
TORSDOF 0
REMARK  Name = molecules/QEEJLLNYQOBRRM-KSHGRFHLSA-N.pdb
REMARK                            x       y       z     vdW  Elec       q    Type
REMARK                         _______ _______ _______ _____ _____    ______ ____
ROOT
ATOM      1  H   UNK    1       -7.539 -18.441   0.000  0.00  0.00    +0.000 HD
ENDROOT
TORSDOF 0
REMARK  Name = molecules/QEEJLLNYQOBRRM-KSHGRFHLSA-N.pdb
REMARK                            x       y       z     vdW  Elec       q    Type
REMARK                         _______ _______ _______ _____ _____    ______ ____
ROOT
ATOM      1  H   UNK    1       -9.562 -16.348   0.000  0.00  0.00    +0.000 HD
ENDROOT
TORSDOF 0
REMARK  Name = molecules/QEEJLLNYQOBRRM-KSHGRFHLSA-N.pdb
REMARK                            x       y       z     vdW  Elec       q    Type
REMARK                         _______ _______ _______ _____ _____    ______ ____
ROOT
ATOM      1  H   UNK    1       -3.408  -9.112   0.000  0.00  0.00    +0.000 HD
ENDROOT
TORSDOF 0
REMARK  Name = molecules/QEEJLLNYQOBRRM-KSHGRFHLSA-N.pdb
REMARK                            x       y       z     vdW  Elec       q    Type
REMARK                         _______ _______ _______ _____ _____    ______ ____
ROOT
ATOM      1  H   UNK    1       -2.161 -10.828   0.000  0.00  0.00    +0.000 HD
ENDROOT
TORSDOF 0
REMARK  Name = molecules/QEEJLLNYQOBRRM-KSHGRFHLSA-N.pdb
REMARK                            x       y       z     vdW  Elec       q    Type
REMARK                         _______ _______ _______ _____ _____    ______ ____
ROOT
ATOM      1  H   UNK    1       -5.471 -10.850   0.000  0.00  0.00    +0.000 HD
ENDROOT
TORSDOF 0
REMARK  Name = molecules/QEEJLLNYQOBRRM-KSHGRFHLSA-N.pdb
REMARK                            x       y       z     vdW  Elec       q    Type
REMARK                         _______ _______ _______ _____ _____    ______ ____
ROOT
ATOM      1  H   UNK    1       -9.594 -14.938   0.000  0.00  0.00    +0.000 HD
ENDROOT
TORSDOF 0
REMARK  Name = molecules/QEEJLLNYQOBRRM-KSHGRFHLSA-N.pdb
REMARK                            x       y       z     vdW  Elec       q    Type
REMARK                         _______ _______ _______ _____ _____    ______ ____
ROOT
ATOM      1  H   UNK    1       -9.240 -11.691   0.000  0.00  0.00    +0.000 HD
ENDROOT
TORSDOF 0
REMARK  Name = molecules/QEEJLLNYQOBRRM-KSHGRFHLSA-N.pdb
REMARK                            x       y       z     vdW  Elec       q    Type
REMARK                         _______ _______ _______ _____ _____    ______ ____
ROOT
ATOM      1  H   UNK    1      -10.740 -14.289   0.000  0.00  0.00    +0.000 HD
ENDROOT
TORSDOF 0
REMARK  Name = molecules/QEEJLLNYQOBRRM-KSHGRFHLSA-N.pdb
REMARK                            x       y       z     vdW  Elec       q    Type
REMARK                         _______ _______ _______ _____ _____    ______ ____
ROOT
ATOM      1  H   UNK    1      -13.887 -12.240   0.000  0.00  0.00    +0.000 HD
ENDROOT
TORSDOF 0
REMARK  Name = molecules/QEEJLLNYQOBRRM-KSHGRFHLSA-N.pdb
REMARK                            x       y       z     vdW  Elec       q    Type
REMARK                         _______ _______ _______ _____ _____    ______ ____
ROOT
ATOM      1  H   UNK    1      -12.588 -14.490   0.000  0.00  0.00    +0.000 HD
ENDROOT
TORSDOF 0
REMARK  Name = molecules/QEEJLLNYQOBRRM-KSHGRFHLSA-N.pdb
REMARK                            x       y       z     vdW  Elec       q    Type
REMARK                         _______ _______ _______ _____ _____    ______ ____
ROOT
ATOM      1  H   UNK    1       -8.295 -15.688   0.000  0.00  0.00    +0.000 HD
ENDROOT
TORSDOF 0
REMARK  Name = molecules/QEEJLLNYQOBRRM-KSHGRFHLSA-N.pdb
REMARK                            x       y       z     vdW  Elec       q    Type
REMARK                         _______ _______ _______ _____ _____    ______ ____
ROOT
ATOM      1  H   UNK    1       -7.026 -18.555   0.000  0.00  0.00    +0.000 HD
ENDROOT
TORSDOF 0
REMARK  Name = molecules/QEEJLLNYQOBRRM-KSHGRFHLSA-N.pdb
REMARK                            x       y       z     vdW  Elec       q    Type
REMARK                         _______ _______ _______ _____ _____    ______ ____
ROOT
ATOM      1  H   UNK    1       -4.346 -19.692   0.000  0.00  0.00    +0.000 HD
ENDROOT
TORSDOF 0
REMARK  Name = molecules/QEEJLLNYQOBRRM-KSHGRFHLSA-N.pdb
REMARK                            x       y       z     vdW  Elec       q    Type
REMARK                         _______ _______ _______ _____ _____    ______ ____
ROOT
ATOM      1  H   UNK    1       -9.294 -22.686   0.000  0.00  0.00    +0.000 HD
ENDROOT
TORSDOF 0
REMARK  Name = molecules/QEEJLLNYQOBRRM-KSHGRFHLSA-N.pdb
REMARK                            x       y       z     vdW  Elec       q    Type
REMARK                         _______ _______ _______ _____ _____    ______ ____
ROOT
ATOM      1  H   UNK    1       -9.447 -20.190   0.000  0.00  0.00    +0.000 HD
ENDROOT
TORSDOF 0
REMARK  Name = molecules/QEEJLLNYQOBRRM-KSHGRFHLSA-N.pdb
REMARK                            x       y       z     vdW  Elec       q    Type
REMARK                         _______ _______ _______ _____ _____    ______ ____
ROOT
ATOM      1  H   UNK    1        4.334 -14.578   0.000  0.00  0.00    +0.000 HD
ENDROOT
TORSDOF 0
REMARK  Name = molecules/QEEJLLNYQOBRRM-KSHGRFHLSA-N.pdb
REMARK                            x       y       z     vdW  Elec       q    Type
REMARK                         _______ _______ _______ _____ _____    ______ ____
ROOT
ATOM      1  H   UNK    1        6.356 -20.516   0.000  0.00  0.00    +0.000 HD
ENDROOT
TORSDOF 0
REMARK  Name = molecules/QEEJLLNYQOBRRM-KSHGRFHLSA-N.pdb
REMARK                            x       y       z     vdW  Elec       q    Type
REMARK                         _______ _______ _______ _____ _____    ______ ____
ROOT
ATOM      1  H   UNK    1        8.250 -16.191   0.000  0.00  0.00    +0.000 HD
ENDROOT
TORSDOF 0
REMARK  Name = molecules/QEEJLLNYQOBRRM-KSHGRFHLSA-N.pdb
REMARK                            x       y       z     vdW  Elec       q    Type
REMARK                         _______ _______ _______ _____ _____    ______ ____
ROOT
ATOM      1  H   UNK    1        6.007 -15.775   0.000  0.00  0.00    +0.000 HD
ENDROOT
TORSDOF 0
REMARK  Name = molecules/QEEJLLNYQOBRRM-KSHGRFHLSA-N.pdb
REMARK                            x       y       z     vdW  Elec       q    Type
REMARK                         _______ _______ _______ _____ _____    ______ ____
ROOT
ATOM      1  H   UNK    1        9.549 -18.441   0.000  0.00  0.00    +0.000 HD
ENDROOT
TORSDOF 0
REMARK  Name = molecules/QEEJLLNYQOBRRM-KSHGRFHLSA-N.pdb
REMARK                            x       y       z     vdW  Elec       q    Type
REMARK                         _______ _______ _______ _____ _____    ______ ____
ROOT
ATOM      1  H   UNK    1        3.008  -7.234   0.000  0.00  0.00    +0.000 HD
ENDROOT
TORSDOF 0
REMARK  Name = molecules/QEEJLLNYQOBRRM-KSHGRFHLSA-N.pdb
REMARK                            x       y       z     vdW  Elec       q    Type
REMARK                         _______ _______ _______ _____ _____    ______ ____
ROOT
ATOM      1  H   UNK    1        2.300  -8.409   0.000  0.00  0.00    +0.000 HD
ENDROOT
TORSDOF 0
REMARK  Name = molecules/QEEJLLNYQOBRRM-KSHGRFHLSA-N.pdb
REMARK                            x       y       z     vdW  Elec       q    Type
REMARK                         _______ _______ _______ _____ _____    ______ ____
ROOT
ATOM      1  H   UNK    1       -9.942 -14.737   0.000  0.00  0.00    +0.000 HD
ENDROOT
TORSDOF 0
REMARK  Name = molecules/QEEJLLNYQOBRRM-KSHGRFHLSA-N.pdb
REMARK                            x       y       z     vdW  Elec       q    Type
REMARK                         _______ _______ _______ _____ _____    ______ ____
ROOT
ATOM      1  H   UNK    1       -6.577 -11.549   0.000  0.00  0.00    +0.000 HD
ENDROOT
TORSDOF 0
REMARK  Name = molecules/QEEJLLNYQOBRRM-KSHGRFHLSA-N.pdb
REMARK                            x       y       z     vdW  Elec       q    Type
REMARK                         _______ _______ _______ _____ _____    ______ ____
ROOT
ATOM      1  H   UNK    1       -8.069 -11.948   0.000  0.00  0.00    +0.000 HD
ENDROOT
TORSDOF 0
REMARK  Name = molecules/QEEJLLNYQOBRRM-KSHGRFHLSA-N.pdb
REMARK                            x       y       z     vdW  Elec       q    Type
REMARK                         _______ _______ _______ _____ _____    ______ ____
ROOT
ATOM      1  H   UNK    1       -8.906 -15.233   0.000  0.00  0.00    +0.000 HD
ENDROOT
TORSDOF 0
REMARK  Name = molecules/QEEJLLNYQOBRRM-KSHGRFHLSA-N.pdb
REMARK                            x       y       z     vdW  Elec       q    Type
REMARK                         _______ _______ _______ _____ _____    ______ ____
ROOT
ATOM      1  H   UNK    1       -2.817 -18.588   0.000  0.00  0.00    +0.000 HD
ENDROOT
TORSDOF 0
REMARK  Name = molecules/QEEJLLNYQOBRRM-KSHGRFHLSA-N.pdb
REMARK                            x       y       z     vdW  Elec       q    Type
REMARK                         _______ _______ _______ _____ _____    ______ ____
ROOT
ATOM      1  H   UNK    1       -3.703 -16.075   0.000  0.00  0.00    +0.000 HD
ENDROOT
TORSDOF 0
REMARK  Name = molecules/QEEJLLNYQOBRRM-KSHGRFHLSA-N.pdb
REMARK                            x       y       z     vdW  Elec       q    Type
REMARK                         _______ _______ _______ _____ _____    ______ ____
ROOT
ATOM      1  H   UNK    1       -9.523 -17.801   0.000  0.00  0.00    +0.000 HD
ENDROOT
TORSDOF 0
REMARK  Name = molecules/QEEJLLNYQOBRRM-KSHGRFHLSA-N.pdb
REMARK                            x       y       z     vdW  Elec       q    Type
REMARK                         _______ _______ _______ _____ _____    ______ ____
ROOT
ATOM      1  H   UNK    1       -1.647 -25.137   0.000  0.00  0.00    +0.000 HD
ENDROOT
TORSDOF 0
REMARK  Name = molecules/QEEJLLNYQOBRRM-KSHGRFHLSA-N.pdb
REMARK                            x       y       z     vdW  Elec       q    Type
REMARK                         _______ _______ _______ _____ _____    ______ ____
ROOT
ATOM      1  H   UNK    1       -7.593 -23.436   0.000  0.00  0.00    +0.000 HD
ENDROOT
TORSDOF 0
REMARK  Name = molecules/QEEJLLNYQOBRRM-KSHGRFHLSA-N.pdb
REMARK                            x       y       z     vdW  Elec       q    Type
REMARK                         _______ _______ _______ _____ _____    ______ ____
ROOT
ATOM      1  H   UNK    1       -7.044 -25.486   0.000  0.00  0.00    +0.000 HD
ENDROOT
TORSDOF 0
REMARK  Name = molecules/QEEJLLNYQOBRRM-KSHGRFHLSA-N.pdb
REMARK                            x       y       z     vdW  Elec       q    Type
REMARK                         _______ _______ _______ _____ _____    ______ ____
ROOT
ATOM      1  H   UNK    1        2.551 -23.442   0.000  0.00  0.00    +0.000 HD
ENDROOT
TORSDOF 0
REMARK  Name = molecules/QEEJLLNYQOBRRM-KSHGRFHLSA-N.pdb
REMARK                            x       y       z     vdW  Elec       q    Type
REMARK                         _______ _______ _______ _____ _____    ______ ____
ROOT
ATOM      1  H   UNK    1        0.767 -23.920   0.000  0.00  0.00    +0.000 HD
ENDROOT
TORSDOF 0
