REMARK  Name = molecules/QELUYTUMUWHWMC-UHFFFAOYSA-N.pdb
REMARK                            x       y       z     vdW  Elec       q    Type
REMARK                         _______ _______ _______ _____ _____    ______ ____
ROOT
ATOM      1  N   LIG    1        1.290   0.197   0.660  0.00  0.00    -0.181 NA
ATOM      2  C   LIG    1        2.467   0.028   0.221  0.00  0.00    +0.043 C 
ATOM      3  C   LIG    1        3.737   0.264   0.956  0.00  0.00    +0.063 C 
ATOM      4  C   LIG    1        2.435  -0.458  -1.182  0.00  0.00    +0.150 C 
ATOM      5  C   LIG    1        0.985  -0.528  -1.447  0.00  0.00    +0.245 C 
ATOM      6  O   LIG    1        0.479  -0.898  -2.534  0.00  0.00    -0.273 OA
ATOM      7  N   LIG    1        0.301  -0.113  -0.277  0.00  0.00    -0.161 N 
ENDROOT
BRANCH   7   8
ATOM      8  C   LIG    1       -1.105  -0.009  -0.039  0.00  0.00    +0.060 A 
ATOM      9  C   LIG    1       -1.567   0.398   1.203  0.00  0.00    +0.025 A 
ATOM     10  C   LIG    1       -2.914   0.518   1.494  0.00  0.00    +0.002 A 
ATOM     11  C   LIG    1       -3.862   0.229   0.537  0.00  0.00    +0.000 A 
ATOM     12  C   LIG    1       -3.408  -0.176  -0.698  0.00  0.00    +0.002 A 
ATOM     13  C   LIG    1       -2.045  -0.297  -0.994  0.00  0.00    +0.025 A 
ENDBRANCH   7   8
TORSDOF 1
