REMARK  Name = molecules/QFFCYTLOTYIJMR-XMGTWHOFSA-N.pdb
REMARK                            x       y       z     vdW  Elec       q    Type
REMARK                         _______ _______ _______ _____ _____    ______ ____
ROOT
ATOM      1  C   LIG    1        1.030   0.357   1.661  0.00  0.00    +0.012 C 
ATOM      2  C   LIG    1        1.090   0.170   0.173  0.00  0.00    -0.016 C 
ATOM      3  C   LIG    1        2.489  -0.208  -0.199  0.00  0.00    +0.032 C 
ATOM      4  C   LIG    1        2.551  -1.620   0.410  0.00  0.00    +0.015 C 
ATOM      5  C   LIG    1        1.139  -2.161   0.302  0.00  0.00    +0.005 C 
ATOM      6  C   LIG    1        2.653  -0.413  -1.693  0.00  0.00    +0.019 C 
ATOM      7  C   LIG    1        0.327  -1.061  -0.305  0.00  0.00    +0.003 C 
ATOM      8  C   LIG    1       -1.088  -1.016   0.128  0.00  0.00    +0.019 C 
ATOM      9  C   LIG    1       -1.691   0.343  -0.024  0.00  0.00    -0.063 C 
ATOM     10  C   LIG    1       -0.883   1.581  -0.020  0.00  0.00    +0.032 C 
ATOM     11  C   LIG    1       -3.003   0.432  -0.175  0.00  0.00    -0.044 C 
ATOM     12  C   LIG    1       -3.895  -0.722  -0.203  0.00  0.00    -0.041 C 
ATOM     13  C   LIG    1       -3.319  -2.102  -0.171  0.00  0.00    +0.036 C 
ATOM     14  C   LIG    1       -5.212  -0.647  -0.262  0.00  0.00    +0.050 C 
ATOM     15  C   LIG    1       -5.797   0.685  -0.301  0.00  0.00    +0.157 C 
ATOM     16  C   LIG    1       -4.994   1.787   0.291  0.00  0.00    +0.083 C 
ATOM     17  O   LIG    1       -6.928   0.913  -0.807  0.00  0.00    -0.293 OA
ATOM     18  C   LIG    1       -3.611   1.802  -0.318  0.00  0.00    +0.043 C 
ATOM     19  C   LIG    1       -1.872  -2.074  -0.621  0.00  0.00    +0.013 C 
ATOM     20  C   LIG    1        0.533   1.352  -0.507  0.00  0.00    +0.012 C 
ENDROOT
BRANCH   3  21
ATOM     21  C   LIG    1        3.514   0.665   0.373  0.00  0.00    +0.139 C 
ATOM     22  O   LIG    1        3.216   1.610   1.077  0.00  0.00    -0.297 OA
BRANCH  21  23
ATOM     23  C   LIG    1        4.955   0.425   0.112  0.00  0.00    +0.071 C 
ATOM     24  C   LIG    1        5.827   1.446   0.820  0.00  0.00    +0.012 C 
ENDBRANCH  21  23
ENDBRANCH   3  21
TORSDOF 2
