REMARK  Name = molecules/QFGMXJOBTNZHEL-UHFFFAOYSA-N.pdb
REMARK                            x       y       z     vdW  Elec       q    Type
REMARK                         _______ _______ _______ _____ _____    ______ ____
ROOT
ATOM      1  O   LIG    1       -0.454  -2.192  -0.009  0.00  0.00    -0.287 OA
ATOM      2  C   LIG    1       -0.753  -0.986  -0.008  0.00  0.00    +0.197 C 
ATOM      3  C   LIG    1        0.329  -0.019   0.159  0.00  0.00    +0.064 A 
ATOM      4  C   LIG    1        0.171   1.346   0.305  0.00  0.00    +0.132 A 
ATOM      5  C   LIG    1        1.302   2.105   0.447  0.00  0.00    +0.046 A 
ATOM      6  C   LIG    1        2.536   1.496   0.441  0.00  0.00    +0.008 A 
ATOM      7  C   LIG    1        2.703   0.129   0.295  0.00  0.00    -0.036 A 
ATOM      8  O   LIG    1       -1.012   2.063   0.327  0.00  0.00    -0.487 OA
ATOM      9  C   LIG    1       -2.274   1.687   0.830  0.00  0.00    +0.265 C 
ATOM     10  C   LIG    1       -2.821   0.460   0.183  0.00  0.00    +0.000 A 
ATOM     11  C   LIG    1       -4.183   0.556  -0.062  0.00  0.00    +0.007 A 
ATOM     12  C   LIG    1       -4.856  -0.492  -0.653  0.00  0.00    +0.000 A 
ATOM     13  C   LIG    1       -4.229  -1.671  -1.029  0.00  0.00    +0.001 A 
ATOM     14  C   LIG    1       -2.875  -1.735  -0.772  0.00  0.00    +0.012 A 
ATOM     15  C   LIG    1        1.558  -0.629   0.152  0.00  0.00    +0.019 A 
ATOM     16  C   LIG    1       -2.190  -0.689  -0.179  0.00  0.00    +0.029 A 
ENDROOT
BRANCH   7  17
ATOM     17  C   LIG    1        4.047  -0.507   0.291  0.00  0.00    +0.155 C 
BRANCH  17  18
ATOM     18  C   LIG    1        4.611  -0.590  -1.061  0.00  0.00    +0.309 C 
ATOM     19  O   LIG    1        3.963  -0.150  -2.038  0.00  0.00    -0.251 OA
BRANCH  18  20
ATOM     20  O   LIG    1        5.843  -1.144  -1.276  0.00  0.00    -0.480 OA
ATOM     21  H   LIG    1        6.537  -1.255  -0.530  0.00  0.00    +0.295 HD
ENDBRANCH  18  20
ENDBRANCH  17  18
ENDBRANCH   7  17
TORSDOF 3
