REMARK  Name = molecules/QFJCIRLUMZQUOT-BLBZBZKNSA-N.pdb
REMARK                            x       y       z     vdW  Elec       q    Type
REMARK                         _______ _______ _______ _____ _____    ______ ____
ROOT
ATOM      1  C   LIG    1        1.240  -3.420  -2.944  0.00  0.00    +0.004 C 
ATOM      2  C   LIG    1        0.629  -2.781  -1.695  0.00  0.00    +0.034 C 
ATOM      3  C   LIG    1        1.554  -3.209  -0.560  0.00  0.00    +0.185 C 
ATOM      4  C   LIG    1        1.417  -2.463   0.670  0.00  0.00    +0.328 C 
ATOM      5  O   LIG    1        0.469  -2.724   1.488  0.00  0.00    -0.249 OA
ATOM      6  O   LIG    1        2.276  -1.437   1.047  0.00  0.00    -0.459 OA
ATOM      7  C   LIG    1        2.576  -0.279   0.291  0.00  0.00    +0.186 C 
ATOM      8  C   LIG    1        1.889   0.876   0.960  0.00  0.00    +0.119 C 
ATOM      9  C   LIG    1        1.093   1.701   0.054  0.00  0.00    +0.140 C 
ATOM     10  C   LIG    1        0.639   3.039   0.492  0.00  0.00    +0.056 C 
ATOM     11  C   LIG    1       -0.635   2.827   1.290  0.00  0.00    +0.016 C 
ATOM     12  C   LIG    1        0.463   3.954  -0.648  0.00  0.00    +0.012 C 
ATOM     13  C   LIG    1        0.603   5.258  -0.601  0.00  0.00    +0.009 C 
ATOM     14  C   LIG    1        0.138   6.078   0.550  0.00  0.00    +0.157 C 
ATOM     15  C   LIG    1       -1.201   6.772   0.248  0.00  0.00    +0.213 C 
ATOM     16  C   LIG    1       -2.335   5.847   0.310  0.00  0.00    +0.167 C 
ATOM     17  O   LIG    1       -2.725   5.528   1.442  0.00  0.00    -0.294 OA
ATOM     18  C   LIG    1       -3.061   5.256  -0.837  0.00  0.00    +0.055 C 
ATOM     19  C   LIG    1       -4.430   4.843  -0.388  0.00  0.00    +0.014 C 
ATOM     20  C   LIG    1       -4.815   3.451  -0.836  0.00  0.00    -0.010 C 
ATOM     21  C   LIG    1       -5.585   2.730   0.211  0.00  0.00    -0.001 C 
ATOM     22  C   LIG    1       -5.038   2.039   1.186  0.00  0.00    -0.000 C 
ATOM     23  C   LIG    1       -3.775   1.356   1.143  0.00  0.00    +0.000 C 
ATOM     24  C   LIG    1       -3.291   0.663   0.141  0.00  0.00    +0.000 C 
ATOM     25  C   LIG    1       -4.065  -0.234  -0.700  0.00  0.00    +0.006 C 
ATOM     26  C   LIG    1       -5.033  -1.003  -0.277  0.00  0.00    +0.006 C 
ATOM     27  C   LIG    1       -5.033  -1.643   1.057  0.00  0.00    +0.127 C 
ATOM     28  C   LIG    1       -3.835  -2.498   1.326  0.00  0.00    +0.063 C 
ATOM     29  C   LIG    1       -3.470  -3.432   0.193  0.00  0.00    +0.125 C 
ATOM     30  O   LIG    1       -2.188  -3.821   0.349  0.00  0.00    -0.339 OA
ATOM     31  C   LIG    1       -1.877  -5.134   0.306  0.00  0.00    +0.240 C 
ATOM     32  C   LIG    1       -0.592  -5.325   1.032  0.00  0.00    +0.276 C 
ATOM     33  O   LIG    1       -0.706  -5.441   2.304  0.00  0.00    -0.281 OA
ATOM     34  C   LIG    1        0.730  -5.397   0.502  0.00  0.00    +0.288 C 
ATOM     35  O   LIG    1        1.459  -6.333   1.025  0.00  0.00    -0.267 OA
ATOM     36  C   LIG    1       -2.857  -6.085   0.914  0.00  0.00    +0.054 C 
ATOM     37  C   LIG    1       -4.247  -5.548   1.053  0.00  0.00    +0.011 C 
ATOM     38  C   LIG    1       -2.930  -7.359   0.096  0.00  0.00    +0.013 C 
ATOM     39  C   LIG    1       -4.476  -4.519  -0.005  0.00  0.00    +0.032 C 
ATOM     40  C   LIG    1       -6.186  -1.242  -1.185  0.00  0.00    +0.015 C 
ATOM     41  C   LIG    1       -5.667   3.596  -2.085  0.00  0.00    +0.008 C 
ATOM     42  C   LIG    1       -3.103   6.249  -1.975  0.00  0.00    +0.015 C 
ATOM     43  C   LIG    1        1.255   6.009  -1.739  0.00  0.00    +0.015 C 
ATOM     44  O   LIG    1        0.800   1.308  -1.048  0.00  0.00    -0.297 OA
ATOM     45  N   LIG    1        1.393  -4.657  -0.468  0.00  0.00    -0.282 N 
ATOM     46  C   LIG    1        2.063  -5.335  -1.606  0.00  0.00    +0.109 C 
ATOM     47  C   LIG    1        1.284  -4.920  -2.831  0.00  0.00    +0.019 C 
ENDROOT
BRANCH  14  48
ATOM     48  O   LIG    1        1.098   7.077   0.813  0.00  0.00    -0.388 OA
ATOM     49  H   LIG    1        1.625   6.775   1.615  0.00  0.00    +0.210 HD
ENDBRANCH  14  48
BRANCH  31  50
ATOM     50  O   LIG    1       -1.684  -5.510  -1.023  0.00  0.00    -0.358 OA
ATOM     51  H   LIG    1       -2.039  -4.898  -1.684  0.00  0.00    +0.213 HD
ENDBRANCH  31  50
BRANCH  27  52
ATOM     52  O   LIG    1       -6.222  -2.287   1.308  0.00  0.00    -0.379 OA
ATOM     53  C   LIG    1       -6.957  -1.734   2.337  0.00  0.00    +0.194 C 
ENDBRANCH  27  52
BRANCH  15  54
ATOM     54  O   LIG    1       -1.063   7.480  -0.919  0.00  0.00    -0.370 OA
ATOM     55  C   LIG    1       -1.145   8.869  -0.747  0.00  0.00    +0.195 C 
ENDBRANCH  15  54
BRANCH   7  56
ATOM     56  C   LIG    1        4.082  -0.051   0.387  0.00  0.00    +0.027 C 
ATOM     57  C   LIG    1        4.479   1.217  -0.318  0.00  0.00    +0.011 C 
BRANCH  56  58
ATOM     58  C   LIG    1        4.799  -1.260  -0.175  0.00  0.00    +0.010 C 
BRANCH  58  59
ATOM     59  C   LIG    1        6.294  -1.033  -0.082  0.00  0.00    -0.008 C 
ATOM     60  C   LIG    1        6.755  -0.735   1.320  0.00  0.00    +0.037 C 
ATOM     61  C   LIG    1        8.246  -0.917   1.396  0.00  0.00    +0.147 C 
ATOM     62  C   LIG    1        8.933  -0.708   0.085  0.00  0.00    +0.143 C 
ATOM     63  C   LIG    1        8.476  -1.730  -0.956  0.00  0.00    +0.034 C 
ATOM     64  C   LIG    1        7.069  -2.205  -0.629  0.00  0.00    +0.006 C 
BRANCH  61  65
ATOM     65  O   LIG    1        8.606  -2.106   2.012  0.00  0.00    -0.377 OA
ATOM     66  C   LIG    1        9.288  -1.932   3.201  0.00  0.00    +0.194 C 
ENDBRANCH  61  65
BRANCH  62  67
ATOM     67  O   LIG    1        8.718   0.566  -0.428  0.00  0.00    -0.389 OA
ATOM     68  H   LIG    1        9.501   0.914  -0.945  0.00  0.00    +0.210 HD
ENDBRANCH  62  67
ENDBRANCH  58  59
ENDBRANCH  56  58
ENDBRANCH   7  56
TORSDOF 9
