REMARK  Name = molecules/QFNHIDANIVGXPE-FNZWTVRRSA-N.pdb
REMARK                            x       y       z     vdW  Elec       q    Type
REMARK                         _______ _______ _______ _____ _____    ______ ____
ROOT
ATOM      1  C   LIG    1       -0.552  -0.352   0.103  0.00  0.00    +0.234 C 
ATOM      2  N   LIG    1        0.719   0.183  -0.194  0.00  0.00    -0.286 N 
ATOM      3  O   LIG    1       -1.228  -0.730  -0.937  0.00  0.00    -0.274 OA
ENDROOT
BRANCH   2   4
ATOM      4  C   LIG    1        1.140   0.303  -1.599  0.00  0.00    +0.139 C 
ATOM      5  C   LIG    1        1.385   1.736  -1.968  0.00  0.00    +0.036 C 
BRANCH   4   6
ATOM      6  C   LIG    1        2.333  -0.552  -1.857  0.00  0.00    +0.128 A 
ATOM      7  N   LIG    1        2.579  -1.807  -1.498  0.00  0.00    -0.231 NA
ATOM      8  C   LIG    1        3.783  -2.214  -1.932  0.00  0.00    +0.089 A 
ATOM      9  C   LIG    1        4.334  -1.156  -2.605  0.00  0.00    +0.112 A 
ATOM     10  N   LIG    1        3.416  -0.145  -2.542  0.00  0.00    -0.346 N 
ATOM     11  H   LIG    1        3.605   0.771  -2.984  0.00  0.00    +0.167 HD
BRANCH   8  12
ATOM     12  C   LIG    1        4.429  -3.506  -1.755  0.00  0.00    +0.002 A 
ATOM     13  C   LIG    1        3.801  -4.532  -1.056  0.00  0.00    +0.010 A 
ATOM     14  C   LIG    1        4.413  -5.756  -0.889  0.00  0.00    +0.001 A 
ATOM     15  C   LIG    1        5.667  -5.999  -1.409  0.00  0.00    +0.000 A 
ATOM     16  C   LIG    1        6.301  -5.000  -2.101  0.00  0.00    +0.001 A 
ATOM     17  C   LIG    1        5.681  -3.785  -2.260  0.00  0.00    +0.010 A 
ENDBRANCH   8  12
ENDBRANCH   4   6
ENDBRANCH   2   4
BRANCH   1  18
ATOM     18  C   LIG    1       -1.190  -0.529   1.401  0.00  0.00    +0.142 C 
BRANCH  18  19
ATOM     19  N   LIG    1       -0.452  -0.030   2.534  0.00  0.00    -0.320 NA
ATOM     20  H   LIG    1       -0.134  -0.784   3.191  0.00  0.00    +0.119 HD
ATOM     21  H   LIG    1       -0.981   0.650   3.117  0.00  0.00    +0.119 HD
ENDBRANCH  18  19
BRANCH  18  22
ATOM     22  C   LIG    1       -2.580   0.100   1.491  0.00  0.00    +0.063 C 
BRANCH  22  25
ATOM     23  C   LIG    1       -4.056  -1.701   0.676  0.00  0.00    -0.046 A 
ATOM     24  C   LIG    1       -3.676  -2.572   1.848  0.00  0.00    +0.044 C 
ATOM     25  C   LIG    1       -3.529  -0.439   0.514  0.00  0.00    -0.040 A 
ATOM     26  C   LIG    1       -3.908   0.320  -0.574  0.00  0.00    -0.046 A 
ATOM     27  C   LIG    1       -3.379   1.696  -0.785  0.00  0.00    +0.044 C 
ATOM     28  C   LIG    1       -4.822  -0.205  -1.498  0.00  0.00    +0.016 A 
ATOM     29  C   LIG    1       -5.364  -1.462  -1.361  0.00  0.00    +0.037 A 
ATOM     30  C   LIG    1       -4.958  -2.184  -0.261  0.00  0.00    +0.016 A 
BRANCH  29  31
ATOM     31  C   LIG    1       -6.299  -1.951  -2.344  0.00  0.00    +0.242 C 
ATOM     32  N   LIG    1       -6.818  -3.257  -2.228  0.00  0.00    -0.325 N 
ATOM     33  H   LIG    1       -6.188  -4.096  -2.155  0.00  0.00    +0.145 HD
ATOM     34  H   LIG    1       -7.840  -3.446  -2.210  0.00  0.00    +0.145 HD
ATOM     35  O   LIG    1       -6.650  -1.228  -3.293  0.00  0.00    -0.270 OA
ENDBRANCH  29  31
ENDBRANCH  22  25
ENDBRANCH  18  22
ENDBRANCH   1  18
BRANCH   2  36
ATOM     36  C   LIG    1        1.595   0.577   0.870  0.00  0.00    +0.143 C 
BRANCH  36  37
ATOM     37  C   LIG    1        1.400   1.930   1.379  0.00  0.00    -0.029 A 
ATOM     38  C   LIG    1        2.278   2.440   2.310  0.00  0.00    +0.009 A 
ATOM     39  C   LIG    1        2.147   3.708   2.827  0.00  0.00    +0.047 A 
ATOM     40  C   LIG    1        1.118   4.492   2.412  0.00  0.00    +0.134 A 
ATOM     41  C   LIG    1        0.221   4.021   1.484  0.00  0.00    +0.101 A 
ATOM     42  C   LIG    1        0.375   2.751   0.984  0.00  0.00    +0.023 A 
BRANCH  40  43
ATOM     43  O   LIG    1        0.988   5.779   2.939  0.00  0.00    -0.494 OA
ATOM     44  C   LIG    1        1.894   6.284   3.889  0.00  0.00    +0.277 C 
ENDBRANCH  40  43
BRANCH  41  45
ATOM     45  C   LIG    1       -0.889   4.879   1.042  0.00  0.00    +0.340 C 
ATOM     46  O   LIG    1       -1.010   6.023   1.508  0.00  0.00    -0.245 OA
BRANCH  45  47
ATOM     47  O   LIG    1       -1.792   4.407   0.109  0.00  0.00    -0.477 OA
ATOM     48  H   LIG    1       -1.884   4.868  -0.790  0.00  0.00    +0.295 HD
ENDBRANCH  45  47
ENDBRANCH  41  45
ENDBRANCH  36  37
ENDBRANCH   2  36
TORSDOF 13
