REMARK  Name = molecules/QFVAWNPSRQWSDU-UHFFFAOYSA-N.pdb
REMARK                            x       y       z     vdW  Elec       q    Type
REMARK                         _______ _______ _______ _____ _____    ______ ____
ROOT
ATOM      1  N   LIG    1       -1.203  -0.594  -0.273  0.00  0.00    -0.302 N 
ATOM      2  C   LIG    1       -0.086  -1.519  -0.090  0.00  0.00    +0.194 C 
ATOM      3  N   LIG    1        1.171  -0.812  -0.165  0.00  0.00    -0.273 NA
ATOM      4  C   LIG    1        1.545  -0.434  -1.481  0.00  0.00    +0.162 C 
ATOM      5  S   LIG    1        0.366   0.876  -1.987  0.00  0.00    -0.087 S 
ATOM      6  C   LIG    1       -1.038   0.680  -0.869  0.00  0.00    +0.112 C 
ATOM      7  S   LIG    1       -2.046   1.925  -0.580  0.00  0.00    -0.028 S 
ENDROOT
BRANCH   1   8
ATOM      8  C   LIG    1       -2.477  -1.038   0.176  0.00  0.00    +0.142 C 
BRANCH   8   9
ATOM      9  C   LIG    1       -3.603  -0.125   0.023  0.00  0.00    -0.030 A 
ATOM     10  C   LIG    1       -4.026   0.594   1.127  0.00  0.00    +0.005 A 
ATOM     11  C   LIG    1       -5.083   1.478   1.110  0.00  0.00    +0.000 A 
ATOM     12  C   LIG    1       -5.753   1.651  -0.083  0.00  0.00    +0.000 A 
ATOM     13  C   LIG    1       -5.342   0.941  -1.196  0.00  0.00    +0.000 A 
ATOM     14  C   LIG    1       -4.290   0.070  -1.153  0.00  0.00    +0.005 A 
ENDBRANCH   8   9
ENDBRANCH   1   8
BRANCH   3  15
ATOM     15  C   LIG    1        2.176  -1.309   0.691  0.00  0.00    +0.122 C 
BRANCH  15  16
ATOM     16  C   LIG    1        3.409  -0.502   0.516  0.00  0.00    -0.033 A 
ATOM     17  C   LIG    1        3.533   0.742   1.148  0.00  0.00    +0.005 A 
ATOM     18  C   LIG    1        4.652   1.511   1.010  0.00  0.00    +0.000 A 
ATOM     19  C   LIG    1        5.687   1.076   0.243  0.00  0.00    +0.000 A 
ATOM     20  C   LIG    1        5.585  -0.145  -0.387  0.00  0.00    +0.000 A 
ATOM     21  C   LIG    1        4.463  -0.903  -0.242  0.00  0.00    +0.005 A 
ENDBRANCH  15  16
ENDBRANCH   3  15
TORSDOF 4
