REMARK  Name = molecules/QFVDKARCPMTZCS-UHFFFAOYSA-N.pdb
REMARK                            x       y       z     vdW  Elec       q    Type
REMARK                         _______ _______ _______ _____ _____    ______ ____
ROOT
ATOM      1  C   LIG    1       -0.048  -0.201   1.211  0.00  0.00    +0.141 C 
ENDROOT
BRANCH   1   2
ATOM      2  C   LIG    1       -0.380   1.213   0.816  0.00  0.00    -0.007 A 
ATOM      3  C   LIG    1       -0.130   2.242   1.698  0.00  0.00    +0.009 A 
ATOM      4  C   LIG    1       -0.427   3.555   1.351  0.00  0.00    +0.023 A 
ATOM      5  C   LIG    1       -0.976   3.864   0.123  0.00  0.00    +0.029 A 
ATOM      6  C   LIG    1       -1.227   2.818  -0.768  0.00  0.00    +0.023 A 
ATOM      7  C   LIG    1       -0.928   1.522  -0.413  0.00  0.00    +0.009 A 
BRANCH   5   8
ATOM      8  N   LIG    1       -1.280   5.210  -0.220  0.00  0.00    -0.336 N 
ATOM      9  C   LIG    1       -2.603   5.794   0.033  0.00  0.00    +0.129 C 
ATOM     10  C   LIG    1       -0.216   5.992  -0.833  0.00  0.00    +0.129 C 
ENDBRANCH   5   8
ENDBRANCH   1   2
BRANCH   1  11
ATOM     11  C   LIG    1        1.344  -0.449   0.769  0.00  0.00    -0.007 A 
ATOM     12  C   LIG    1        2.300  -0.686   1.730  0.00  0.00    +0.009 A 
ATOM     13  C   LIG    1        3.600  -0.937   1.430  0.00  0.00    +0.023 A 
ATOM     14  C   LIG    1        3.982  -0.956   0.108  0.00  0.00    +0.029 A 
ATOM     15  C   LIG    1        3.035  -0.719  -0.869  0.00  0.00    +0.023 A 
ATOM     16  C   LIG    1        1.726  -0.467  -0.541  0.00  0.00    +0.009 A 
BRANCH  14  17
ATOM     17  N   LIG    1        5.330  -1.222  -0.233  0.00  0.00    -0.336 N 
ATOM     18  C   LIG    1        6.311  -1.483   0.797  0.00  0.00    +0.129 C 
ATOM     19  C   LIG    1        5.734  -1.239  -1.616  0.00  0.00    +0.129 C 
ENDBRANCH  14  17
ENDBRANCH   1  11
BRANCH   1  20
ATOM     20  C   LIG    1       -1.018  -1.158   0.674  0.00  0.00    -0.007 A 
ATOM     21  C   LIG    1       -2.326  -0.755   0.502  0.00  0.00    +0.009 A 
ATOM     22  C   LIG    1       -3.311  -1.585   0.014  0.00  0.00    +0.023 A 
ATOM     23  C   LIG    1       -3.003  -2.878  -0.325  0.00  0.00    +0.029 A 
ATOM     24  C   LIG    1       -1.710  -3.316  -0.167  0.00  0.00    +0.023 A 
ATOM     25  C   LIG    1       -0.741  -2.465   0.324  0.00  0.00    +0.009 A 
BRANCH  23  26
ATOM     26  N   LIG    1       -4.030  -3.716  -0.836  0.00  0.00    -0.336 N 
ATOM     27  C   LIG    1       -4.731  -4.637   0.035  0.00  0.00    +0.129 C 
ATOM     28  C   LIG    1       -4.352  -3.630  -2.243  0.00  0.00    +0.129 C 
ENDBRANCH  23  26
ENDBRANCH   1  20
BRANCH   1  29
ATOM     29  O   LIG    1       -0.110  -0.259   2.598  0.00  0.00    -0.375 OA
ATOM     30  H   LIG    1       -0.136  -1.214   2.901  0.00  0.00    +0.211 HD
ENDBRANCH   1  29
TORSDOF 7
