REMARK  Name = molecules/QGNJRVVDBSJHIZ-QHLGVNSISA-N.pdb
REMARK                            x       y       z     vdW  Elec       q    Type
REMARK                         _______ _______ _______ _____ _____    ______ ____
ROOT
ATOM      1  C   LIG    1       -0.140   0.071   0.296  0.00  0.00    -0.050 C 
ATOM      2  C   LIG    1        0.222   0.119   1.719  0.00  0.00    +0.044 C 
ATOM      3  C   LIG    1        0.763   0.250  -0.635  0.00  0.00    +0.003 C 
ENDROOT
BRANCH   1   5
ATOM      4  C   LIG    1       -2.460  -0.362   0.825  0.00  0.00    +0.004 C 
ATOM      5  C   LIG    1       -1.557  -0.182  -0.075  0.00  0.00    +0.003 C 
BRANCH   4   6
ATOM      6  C   LIG    1       -3.865  -0.619   0.717  0.00  0.00    -0.043 C 
ATOM      7  C   LIG    1       -4.600  -0.749   1.860  0.00  0.00    -0.069 C 
ATOM      8  C   LIG    1       -3.837  -0.609   3.132  0.00  0.00    +0.039 C 
ATOM      9  C   LIG    1       -6.043  -0.980   1.899  0.00  0.00    +0.031 C 
ATOM     10  C   LIG    1       -6.551  -1.809   0.746  0.00  0.00    +0.005 C 
ATOM     11  C   LIG    1       -5.479  -2.071  -0.261  0.00  0.00    +0.011 C 
ATOM     12  C   LIG    1       -4.634  -0.780  -0.492  0.00  0.00    -0.010 C 
ATOM     13  C   LIG    1       -5.607   0.380  -0.724  0.00  0.00    +0.016 C 
ATOM     14  C   LIG    1       -3.963  -1.020  -1.797  0.00  0.00    +0.016 C 
ENDBRANCH   4   6
ENDBRANCH   1   5
BRANCH   3  15
ATOM     15  C   LIG    1        2.174   0.503  -0.382  0.00  0.00    +0.001 C 
ATOM     16  C   LIG    1        3.018   0.674  -1.369  0.00  0.00    +0.003 C 
BRANCH  16  17
ATOM     17  C   LIG    1        4.447   0.933  -1.256  0.00  0.00    -0.051 C 
ATOM     18  C   LIG    1        5.150   1.039   0.044  0.00  0.00    +0.043 C 
ATOM     19  C   LIG    1        5.173   1.083  -2.356  0.00  0.00    +0.017 C 
BRANCH  19  20
ATOM     20  C   LIG    1        6.623   1.349  -2.407  0.00  0.00    +0.260 C 
BRANCH  20  21
ATOM     21  O   LIG    1        7.269   1.447  -1.189  0.00  0.00    -0.461 OA
BRANCH  21  22
ATOM     22  C   LIG    1        8.612   1.691  -1.026  0.00  0.00    +0.304 C 
ATOM     23  C   LIG    1        9.155   1.768   0.355  0.00  0.00    +0.136 C 
ATOM     24  O   LIG    1        9.328   1.839  -2.046  0.00  0.00    -0.251 OA
ENDBRANCH  21  22
ENDBRANCH  20  21
ENDBRANCH  19  20
ENDBRANCH  16  17
ENDBRANCH   3  15
TORSDOF 7
