REMARK  Name = molecules/QHGUCRYDKWKLMG-QMMMGPOBSA-N.pdb
REMARK                            x       y       z     vdW  Elec       q    Type
REMARK                         _______ _______ _______ _____ _____    ______ ____
ROOT
ATOM      1  C   LIG    1        0.070   0.214  -0.151  0.00  0.00    -0.018 A 
ATOM      2  C   LIG    1        0.673  -0.662   0.728  0.00  0.00    +0.010 A 
ATOM      3  C   LIG    1        2.062  -0.776   0.788  0.00  0.00    +0.046 A 
ATOM      4  C   LIG    1        2.888  -0.024  -0.021  0.00  0.00    +0.117 A 
ATOM      5  C   LIG    1        2.276   0.849  -0.897  0.00  0.00    +0.046 A 
ATOM      6  C   LIG    1        0.902   0.963  -0.958  0.00  0.00    +0.010 A 
ENDROOT
BRANCH   4   7
ATOM      7  O   LIG    1        4.274  -0.133   0.034  0.00  0.00    -0.507 OA
ATOM      8  H   LIG    1        4.822   0.447   0.656  0.00  0.00    +0.292 HD
ENDBRANCH   4   7
BRANCH   1   9
ATOM      9  C   LIG    1       -1.403   0.378  -0.259  0.00  0.00    +0.158 C 
BRANCH   9  10
ATOM     10  O   LIG    1       -1.741   0.397  -1.607  0.00  0.00    -0.386 OA
ATOM     11  H   LIG    1       -1.787  -0.513  -2.000  0.00  0.00    +0.210 HD
ENDBRANCH   9  10
BRANCH   9  12
ATOM     12  C   LIG    1       -2.157  -0.654   0.512  0.00  0.00    +0.114 C 
BRANCH  12  13
ATOM     13  N   LIG    1       -3.578  -0.342   0.386  0.00  0.00    -0.327 NA
ATOM     14  H   LIG    1       -4.012  -0.212   1.334  0.00  0.00    +0.118 HD
ATOM     15  H   LIG    1       -3.739   0.552  -0.131  0.00  0.00    +0.118 HD
ENDBRANCH  12  13
ENDBRANCH   9  12
ENDBRANCH   1   9
TORSDOF 5
