REMARK  Name = molecules/QHJOIAXHOQIPJT-UHFFFAOYSA-N.pdb
REMARK                            x       y       z     vdW  Elec       q    Type
REMARK                         _______ _______ _______ _____ _____    ______ ____
ROOT
ATOM      1  C   LIG    1       -0.081  -0.493  -0.082  0.00  0.00    +0.127 C 
ATOM      2  C   LIG    1        0.279  -1.192   1.144  0.00  0.00    +0.234 C 
ATOM      3  N   LIG    1       -0.749  -1.523   2.073  0.00  0.00    -0.267 N 
ATOM      4  H   LIG    1       -0.486  -1.564   3.101  0.00  0.00    +0.157 HD
ATOM      5  C   LIG    1       -2.084  -1.791   1.647  0.00  0.00    +0.143 C 
ATOM      6  S   LIG    1       -3.256  -2.170   2.699  0.00  0.00    -0.018 S 
ATOM      7  N   LIG    1       -2.279  -1.696   0.241  0.00  0.00    -0.267 N 
ATOM      8  H   LIG    1       -3.264  -1.887  -0.139  0.00  0.00    +0.157 HD
ATOM      9  O   LIG    1        1.441  -1.536   1.460  0.00  0.00    -0.274 OA
ATOM     10  C   LIG    1       -1.222  -1.363  -0.628  0.00  0.00    +0.234 C 
ATOM     11  O   LIG    1       -1.222  -1.771  -1.817  0.00  0.00    -0.274 OA
ENDROOT
BRANCH   1  12
ATOM     12  C   LIG    1        0.919  -0.526  -1.194  0.00  0.00    +0.029 C 
BRANCH  12  13
ATOM     13  C   LIG    1        2.066   0.348  -1.255  0.00  0.00    -0.016 C 
ATOM     14  C   LIG    1        3.057   0.277  -0.117  0.00  0.00    +0.007 C 
ATOM     15  C   LIG    1        1.839   1.787  -1.620  0.00  0.00    +0.007 C 
ENDBRANCH  12  13
ENDBRANCH   1  12
BRANCH   1  16
ATOM     16  C   LIG    1       -0.718   0.855   0.066  0.00  0.00    +0.052 C 
BRANCH  16  17
ATOM     17  C   LIG    1       -1.709   1.017   1.132  0.00  0.00    -0.033 C 
ATOM     18  C   LIG    1       -2.954   1.340   0.863  0.00  0.00    +0.004 C 
ENDBRANCH  16  17
ENDBRANCH   1  16
TORSDOF 4
