REMARK  Name = molecules/QHZQILHUJDRDAI-QRWLVFNGSA-N.pdb
REMARK                            x       y       z     vdW  Elec       q    Type
REMARK                         _______ _______ _______ _____ _____    ______ ____
ROOT
ATOM      1  C   LIG    1       -2.851  -0.398   0.381  0.00  0.00    +0.148 C 
ATOM      2  C   LIG    1       -1.383  -0.265   0.463  0.00  0.00    +0.243 C 
ATOM      3  O   LIG    1       -0.894   0.348   1.433  0.00  0.00    -0.274 OA
ATOM      4  N   LIG    1       -0.531  -0.809  -0.519  0.00  0.00    -0.221 N 
ATOM      5  C   LIG    1       -1.033  -1.727  -1.470  0.00  0.00    +0.315 C 
ATOM      6  N   LIG    1       -2.405  -2.085  -1.413  0.00  0.00    -0.239 N 
ATOM      7  H   LIG    1       -2.771  -2.758  -2.110  0.00  0.00    +0.159 HD
ATOM      8  O   LIG    1       -0.316  -2.226  -2.347  0.00  0.00    -0.252 OA
ATOM      9  C   LIG    1       -3.292  -1.558  -0.439  0.00  0.00    +0.240 C 
ATOM     10  O   LIG    1       -4.421  -2.087  -0.299  0.00  0.00    -0.274 OA
ENDROOT
BRANCH   1  11
ATOM     11  C   LIG    1       -3.475   0.798  -0.224  0.00  0.00    -0.024 A 
ATOM     12  C   LIG    1       -4.572   1.361   0.362  0.00  0.00    +0.005 A 
ATOM     13  C   LIG    1       -5.179   2.502  -0.193  0.00  0.00    +0.000 A 
ATOM     14  C   LIG    1       -4.676   3.068  -1.335  0.00  0.00    +0.000 A 
ATOM     15  C   LIG    1       -3.567   2.503  -1.931  0.00  0.00    +0.000 A 
ATOM     16  C   LIG    1       -2.986   1.387  -1.375  0.00  0.00    +0.005 A 
ENDBRANCH   1  11
BRANCH   1  17
ATOM     17  C   LIG    1       -3.348  -0.540   1.803  0.00  0.00    +0.027 C 
ATOM     18  C   LIG    1       -2.679  -1.786   2.422  0.00  0.00    +0.006 C 
ENDBRANCH   1  17
BRANCH   4  19
ATOM     19  C   LIG    1        0.852  -0.435  -0.561  0.00  0.00    +0.165 C 
BRANCH  19  20
ATOM     20  C   LIG    1        1.732  -1.333   0.274  0.00  0.00    +0.221 C 
BRANCH  20  21
ATOM     21  C   LIG    1        3.159  -0.843   0.157  0.00  0.00    +0.206 C 
BRANCH  21  22
ATOM     22  O   LIG    1        3.258   0.510   0.543  0.00  0.00    -0.376 OA
BRANCH  22  23
ATOM     23  C   LIG    1        4.625   0.839   0.390  0.00  0.00    +0.160 C 
BRANCH  23  24
ATOM     24  C   LIG    1        4.849   2.290   0.782  0.00  0.00    +0.028 C 
BRANCH  24  25
ATOM     25  C   LIG    1        3.982   3.123  -0.149  0.00  0.00    -0.001 C 
ATOM     26  C   LIG    1        4.398   2.879  -1.587  0.00  0.00    +0.004 C 
ENDBRANCH  24  25
ENDBRANCH  23  24
ENDBRANCH  22  23
ENDBRANCH  21  22
ENDBRANCH  20  21
BRANCH  20  27
ATOM     27  O   LIG    1        1.700  -2.671  -0.120  0.00  0.00    -0.443 OA
BRANCH  27  28
ATOM     28  C   LIG    1        1.369  -3.687   0.760  0.00  0.00    +0.398 C 
ATOM     29  O   LIG    1        1.094  -3.363   1.941  0.00  0.00    -0.227 OA
ATOM     30  N   LIG    1        1.344  -5.033   0.333  0.00  0.00    -0.295 N 
ATOM     31  H   LIG    1        1.532  -5.792   1.010  0.00  0.00    +0.148 HD
ATOM     32  H   LIG    1        1.137  -5.240  -0.660  0.00  0.00    +0.148 HD
ENDBRANCH  27  28
ENDBRANCH  20  27
ENDBRANCH  19  20
ENDBRANCH   4  19
TORSDOF 11
