REMARK  Name = molecules/QIGBRXMKCJKVMJ-UHFFFAOYSA-N.pdb
REMARK                            x       y       z     vdW  Elec       q    Type
REMARK                         _______ _______ _______ _____ _____    ______ ____
ROOT
ATOM      1  C   LIG    1       -1.397  -0.147   0.142  0.00  0.00    +0.117 A 
ATOM      2  C   LIG    1       -0.578  -1.149   0.615  0.00  0.00    +0.049 A 
ATOM      3  C   LIG    1        0.793  -1.078   0.443  0.00  0.00    +0.049 A 
ATOM      4  C   LIG    1        1.403  -0.019  -0.198  0.00  0.00    +0.117 A 
ATOM      5  C   LIG    1        0.583   0.982  -0.671  0.00  0.00    +0.049 A 
ATOM      6  C   LIG    1       -0.787   0.909  -0.498  0.00  0.00    +0.049 A 
ENDROOT
BRANCH   1   7
ATOM      7  O   LIG    1       -2.783  -0.194   0.301  0.00  0.00    -0.507 OA
ATOM      8  H   LIG    1       -3.392   0.530  -0.038  0.00  0.00    +0.292 HD
ENDBRANCH   1   7
BRANCH   4   9
ATOM      9  O   LIG    1        2.788   0.017  -0.352  0.00  0.00    -0.507 OA
ATOM     10  H   LIG    1        3.320   0.461   0.382  0.00  0.00    +0.292 HD
ENDBRANCH   4   9
TORSDOF 2
