REMARK  Name = molecules/QIHLUZAFSSMXHQ-UHFFFAOYSA-N.pdb
REMARK                            x       y       z     vdW  Elec       q    Type
REMARK                         _______ _______ _______ _____ _____    ______ ____
ROOT
ATOM      1  N   LIG    1        1.961  -0.248  -0.056  0.00  0.00    -0.297 NA
ATOM      2  C   LIG    1        1.080  -1.128   0.595  0.00  0.00    +0.086 C 
ATOM      3  C   LIG    1       -0.140  -0.379   1.156  0.00  0.00    +0.031 C 
ATOM      4  C   LIG    1       -0.966   0.201   0.039  0.00  0.00    +0.023 C 
ATOM      5  C   LIG    1        0.042   0.745  -0.993  0.00  0.00    +0.031 C 
ATOM      6  C   LIG    1        1.389   1.017  -0.362  0.00  0.00    +0.086 C 
ENDROOT
BRANCH   4   7
ATOM      7  C   LIG    1       -1.851   1.298   0.529  0.00  0.00    -0.037 A 
ATOM      8  C   LIG    1       -3.027   0.936   1.172  0.00  0.00    +0.004 A 
ATOM      9  C   LIG    1       -3.841   1.948   1.636  0.00  0.00    +0.000 A 
ATOM     10  C   LIG    1       -3.493   3.276   1.462  0.00  0.00    +0.000 A 
ATOM     11  C   LIG    1       -2.325   3.618   0.823  0.00  0.00    +0.000 A 
ATOM     12  C   LIG    1       -1.500   2.618   0.353  0.00  0.00    +0.004 A 
ENDBRANCH   4   7
BRANCH   4  13
ATOM     13  C   LIG    1       -1.770  -0.842  -0.615  0.00  0.00    -0.037 A 
ATOM     14  C   LIG    1       -2.280  -1.950   0.013  0.00  0.00    +0.004 A 
ATOM     15  C   LIG    1       -3.038  -2.919  -0.647  0.00  0.00    +0.000 A 
ATOM     16  C   LIG    1       -3.285  -2.759  -1.981  0.00  0.00    +0.000 A 
ATOM     17  C   LIG    1       -2.770  -1.633  -2.633  0.00  0.00    +0.000 A 
ATOM     18  C   LIG    1       -2.028  -0.693  -1.969  0.00  0.00    +0.004 A 
ENDBRANCH   4  13
BRANCH   1  19
ATOM     19  C   LIG    1        3.340  -0.347   0.134  0.00  0.00    +0.014 C 
ATOM     20  C   LIG    1        3.841  -0.117   1.539  0.00  0.00    +0.027 C 
ATOM     21  C   LIG    1        3.753  -1.785  -0.218  0.00  0.00    +0.027 C 
ATOM     22  C   LIG    1        4.144   0.557  -0.778  0.00  0.00    +0.027 C 
ENDBRANCH   1  19
TORSDOF 3
