REMARK  Name = molecules/QIMGFXOHTOXMQP-GFAGFCTOSA-N.pdb
REMARK                            x       y       z     vdW  Elec       q    Type
REMARK                         _______ _______ _______ _____ _____    ______ ____
ROOT
ATOM      1  C   LIG    1        7.258  -7.971   0.000  0.00  0.00    +0.192 C 
ENDROOT
BRANCH   1   4
ATOM      2  C   LIG    1        8.146  -5.530   0.000  0.00  0.00    +0.226 C 
ATOM      3  O   LIG    1        9.608  -5.867   0.000  0.00  0.00    -0.275 OA
ATOM      4  N   LIG    1        6.997  -6.494   0.000  0.00  0.00    -0.301 N 
ATOM      5  H   LIG    1        6.304  -5.810   0.000  0.00  0.00    +0.150 HD
BRANCH   2   6
ATOM      6  C   LIG    1        7.886  -4.053   0.000  0.00  0.00    +0.166 C 
BRANCH   6   8
ATOM      7  C   LIG    1        7.365  -1.098   0.000  0.00  0.00    +0.158 C 
ATOM      8  C   LIG    1        7.625  -2.575   0.000  0.00  0.00    +0.187 C 
ATOM      9  O   LIG    1        9.102  -2.315   0.000  0.00  0.00    -0.290 OA
BRANCH   7  10
ATOM     10  N   LIG    1        5.888  -1.359   0.000  0.00  0.00    -0.253 N 
BRANCH  10  11
ATOM     11  O   LIG    1        5.579  -0.671   0.000  0.00  0.00    -0.287 OA
ATOM     12  H   LIG    1        5.071  -0.101   0.000  0.00  0.00    +0.244 HD
ENDBRANCH  10  11
BRANCH  10  13
ATOM     13  C   LIG    1        5.374  -2.768   0.000  0.00  0.00    +0.156 C 
BRANCH  13  15
ATOM     14  C   LIG    1        2.420  -3.289   0.000  0.00  0.00    +0.019 C 
ATOM     15  C   LIG    1        3.897  -3.029   0.000  0.00  0.00    +0.100 C 
BRANCH  15  16
ATOM     16  N   LIG    1        3.637  -1.552   0.000  0.00  0.00    -0.251 NA
ATOM     17  H   LIG    1        2.784  -0.819   0.000  0.00  0.00    +0.141 HD
ENDBRANCH  15  16
ENDBRANCH  13  15
ENDBRANCH  10  13
ENDBRANCH   7  10
ENDBRANCH   6   8
ENDBRANCH   2   6
ENDBRANCH   1   4
BRANCH   1  18
ATOM     18  C   LIG    1        5.780  -8.232   0.000  0.00  0.00    +0.183 C 
ATOM     19  C   LIG    1        4.303  -8.492   0.000  0.00  0.00    +0.043 C 
ATOM     20  O   LIG    1        6.041  -9.709   0.000  0.00  0.00    -0.229 OA
ENDBRANCH   1  18
BRANCH   1  21
ATOM     21  C   LIG    1        8.735  -7.711   0.000  0.00  0.00    +0.255 C 
ATOM     22  O   LIG    1        9.416  -6.374   0.000  0.00  0.00    -0.272 OA
ATOM     23  N   LIG    1        9.699  -8.860   0.000  0.00  0.00    -0.216 NA
BRANCH  23  24
ATOM     24  C   LIG    1       11.176  -8.600   0.000  0.00  0.00    +0.137 C 
BRANCH  24  25
ATOM     25  C   LIG    1       12.653  -8.339   0.000  0.00  0.00    +0.083 C 
BRANCH  25  26
ATOM     26  C   LIG    1       14.130  -8.079   0.000  0.00  0.00    +0.081 A 
ATOM     27  S   LIG    1       15.210  -9.120   0.000  0.00  0.00    -0.080 S 
ATOM     28  C   LIG    1       16.534  -8.416   0.000  0.00  0.00    +0.077 A 
ATOM     29  C   LIG    1       16.273  -6.939   0.000  0.00  0.00    +0.103 A 
ATOM     30  N   LIG    1       14.788  -6.730   0.000  0.00  0.00    -0.242 NA
BRANCH  29  31
ATOM     31  C   LIG    1       17.316  -5.860   0.000  0.00  0.00    +0.128 A 
ATOM     32  S   LIG    1       18.801  -6.069   0.000  0.00  0.00    -0.073 S 
ATOM     33  C   LIG    1       19.458  -4.721   0.000  0.00  0.00    +0.080 A 
ATOM     34  C   LIG    1       18.379  -3.679   0.000  0.00  0.00    +0.135 A 
ATOM     35  N   LIG    1       17.055  -4.383   0.000  0.00  0.00    -0.233 NA
BRANCH  34  36
ATOM     36  C   LIG    1       18.588  -2.193   0.000  0.00  0.00    +0.282 C 
ATOM     37  O   LIG    1       17.406  -1.270   0.000  0.00  0.00    -0.267 OA
ATOM     38  N   LIG    1       19.979  -1.631   0.000  0.00  0.00    -0.212 NA
BRANCH  38  39
ATOM     39  C   LIG    1       20.188  -0.146   0.000  0.00  0.00    +0.131 C 
ATOM     40  C   LIG    1       20.396   1.339   0.000  0.00  0.00    +0.022 C 
ENDBRANCH  38  39
ENDBRANCH  34  36
ENDBRANCH  29  31
ENDBRANCH  25  26
ENDBRANCH  24  25
ENDBRANCH  23  24
ENDBRANCH   1  21
TORSDOF 16
REMARK  Name = molecules/QIMGFXOHTOXMQP-GFAGFCTOSA-N.pdb
REMARK                            x       y       z     vdW  Elec       q    Type
REMARK                         _______ _______ _______ _____ _____    ______ ____
ROOT
ATOM      1  O   HOH    1        2.159  -1.812   0.000  0.00  0.00    -0.253 OA
ATOM      2  H   HOH    0        2.300  -0.871   0.000  0.00  0.00    +0.253 HD
ENDROOT
TORSDOF 0
REMARK  Name = molecules/QIMGFXOHTOXMQP-GFAGFCTOSA-N.pdb
REMARK                            x       y       z     vdW  Elec       q    Type
REMARK                         _______ _______ _______ _____ _____    ______ ____
ROOT
ATOM      1  C   LIG    1        0.943  -3.550   0.000  0.00  0.00    +0.000 C 
ENDROOT
TORSDOF 0
REMARK  Name = molecules/QIMGFXOHTOXMQP-GFAGFCTOSA-N.pdb
REMARK                            x       y       z     vdW  Elec       q    Type
REMARK                         _______ _______ _______ _____ _____    ______ ____
ROOT
ATOM      1  C   LIG    1        0.750  -1.299   0.000  0.00  0.00    +0.086 C 
ATOM      2  N   LIG    1       -0.136  -2.508   0.000  0.00  0.00    -0.295 NA
ATOM      3  C   LIG    1       -0.750  -1.299   0.000  0.00  0.00    +0.086 C 
ATOM      4  H   LIG    1       -0.255  -3.223   0.000  0.00  0.00    +0.123 HD
ENDROOT
TORSDOF 0
REMARK  Name = molecules/QIMGFXOHTOXMQP-GFAGFCTOSA-N.pdb
REMARK                            x       y       z     vdW  Elec       q    Type
REMARK                         _______ _______ _______ _____ _____    ______ ____
ROOT
ATOM      1  C   LIG    1        0.285  -4.898   0.000  0.00  0.00    +0.074 C 
ATOM      2  C   LIG    1       -0.489  -4.705   0.000  0.00  0.00    +0.050 C 
ENDROOT
BRANCH   1   3
ATOM      3  O   LIG    1        0.920  -5.218   0.000  0.00  0.00    -0.312 OA
ATOM      4  H   LIG    1        0.990  -6.222   0.000  0.00  0.00    +0.230 HD
ENDBRANCH   1   3
BRANCH   2   5
ATOM      5  N   LIG    1       -1.200  -4.689   0.000  0.00  0.00    -0.164 NA
BRANCH   5   6
ATOM      6  C   LIG    1       -1.639  -3.740   0.000  0.00  0.00    +0.279 C 
BRANCH   6   7
ATOM      7  O   LIG    1       -3.048  -4.253   0.000  0.00  0.00    -0.369 OA
ATOM      8  H   LIG    1       -4.205  -3.808   0.000  0.00  0.00    +0.212 HD
ENDBRANCH   6   7
ENDBRANCH   5   6
ENDBRANCH   2   5
TORSDOF 4
REMARK  Name = molecules/QIMGFXOHTOXMQP-GFAGFCTOSA-N.pdb
REMARK                            x       y       z     vdW  Elec       q    Type
REMARK                         _______ _______ _______ _____ _____    ______ ____
ROOT
ATOM      1  C   LIG    1        4.786  -0.587   0.000  0.00  0.00    +0.000 C 
ENDROOT
TORSDOF 0
REMARK  Name = molecules/QIMGFXOHTOXMQP-GFAGFCTOSA-N.pdb
REMARK                            x       y       z     vdW  Elec       q    Type
REMARK                         _______ _______ _______ _____ _____    ______ ____
ROOT
ATOM      1  O   HOH    1        6.032  -4.117   0.000  0.00  0.00    +0.000 OA
ENDROOT
TORSDOF 0
REMARK  Name = molecules/QIMGFXOHTOXMQP-GFAGFCTOSA-N.pdb
REMARK                            x       y       z     vdW  Elec       q    Type
REMARK                         _______ _______ _______ _____ _____    ______ ____
ROOT
ATOM      1  O   LIG    1        1.500   0.000   0.000  0.00  0.00    -0.382 OA
ATOM      2  H   LIG    1        0.499   0.127   0.000  0.00  0.00    +0.210 HD
ENDROOT
BRANCH   1   3
ATOM      3  C   LIG    1        1.967   0.439   0.000  0.00  0.00    +0.133 C 
ATOM      4  C   LIG    1        0.750   1.299   0.000  0.00  0.00    +0.039 C 
ENDBRANCH   1   3
TORSDOF 1
REMARK  Name = molecules/QIMGFXOHTOXMQP-GFAGFCTOSA-N.pdb
REMARK                            x       y       z     vdW  Elec       q    Type
REMARK                         _______ _______ _______ _____ _____    ______ ____
ROOT
ATOM      1  C   LIG    1       -1.461  -3.212   0.000  0.00  0.00    +0.279 C 
ATOM      2  O   LIG    1       -0.489  -2.776   0.000  0.00  0.00    -0.279 OA
ENDROOT
TORSDOF 0
REMARK  Name = molecules/QIMGFXOHTOXMQP-GFAGFCTOSA-N.pdb
REMARK                            x       y       z     vdW  Elec       q    Type
REMARK                         _______ _______ _______ _____ _____    ______ ____
ROOT
ATOM      1  C   LIG    1        4.525   0.890   0.000  0.00  0.00    +0.000 C 
ENDROOT
TORSDOF 0
REMARK  Name = molecules/QIMGFXOHTOXMQP-GFAGFCTOSA-N.pdb
REMARK                            x       y       z     vdW  Elec       q    Type
REMARK                         _______ _______ _______ _____ _____    ______ ____
ROOT
ATOM      1  C   LIG    1       -1.500   0.000   0.000  0.00  0.00    +0.169 C 
ATOM      2  O   LIG    1       -2.649  -0.964   0.000  0.00  0.00    -0.379 OA
ATOM      3  H   LIG    1       -2.212  -1.636   0.000  0.00  0.00    +0.211 HD
ENDROOT
TORSDOF 0
REMARK  Name = molecules/QIMGFXOHTOXMQP-GFAGFCTOSA-N.pdb
REMARK                            x       y       z     vdW  Elec       q    Type
REMARK                         _______ _______ _______ _____ _____    ______ ____
ROOT
ATOM      1  N   LIG    1        5.674   1.854   0.000  0.00  0.00    -0.163 NA
ATOM      2  H   LIG    1        6.666   1.813   0.000  0.00  0.00    +0.163 HD
ENDROOT
TORSDOF 0
REMARK  Name = molecules/QIMGFXOHTOXMQP-GFAGFCTOSA-N.pdb
REMARK                            x       y       z     vdW  Elec       q    Type
REMARK                         _______ _______ _______ _____ _____    ______ ____
ROOT
ATOM      1  C   LIG    1        3.116   1.403   0.000  0.00  0.00    +0.000 C 
ENDROOT
TORSDOF 0
REMARK  Name = molecules/QIMGFXOHTOXMQP-GFAGFCTOSA-N.pdb
REMARK                            x       y       z     vdW  Elec       q    Type
REMARK                         _______ _______ _______ _____ _____    ______ ____
ROOT
ATOM      1  C   LIG    1        7.104   0.379   0.000  0.00  0.00    +0.000 C 
ENDROOT
TORSDOF 0
REMARK  Name = molecules/QIMGFXOHTOXMQP-GFAGFCTOSA-N.pdb
REMARK                            x       y       z     vdW  Elec       q    Type
REMARK                         _______ _______ _______ _____ _____    ______ ____
ROOT
ATOM      1  C   LIG    1       -0.750   1.299   0.000  0.00  0.00    +0.176 C 
ATOM      2  O   LIG    1       -2.159   1.812   0.000  0.00  0.00    -0.386 OA
ATOM      3  H   LIG    1       -2.649   0.964   0.000  0.00  0.00    +0.210 HD
ENDROOT
TORSDOF 0
REMARK  Name = molecules/QIMGFXOHTOXMQP-GFAGFCTOSA-N.pdb
REMARK                            x       y       z     vdW  Elec       q    Type
REMARK                         _______ _______ _______ _____ _____    ______ ____
ROOT
ATOM      1  C   LIG    1        0.489   2.776   0.000  0.00  0.00    +0.156 C 
ATOM      2  N   LIG    1        1.446   3.393   0.000  0.00  0.00    -0.156 NA
ENDROOT
TORSDOF 0
REMARK  Name = molecules/QIMGFXOHTOXMQP-GFAGFCTOSA-N.pdb
REMARK                            x       y       z     vdW  Elec       q    Type
REMARK                         _______ _______ _______ _____ _____    ______ ____
ROOT
ATOM      1  C   LIG    1        5.414   3.331   0.000  0.00  0.00    +0.115 C 
ATOM      2  N   LIG    1        4.004   3.844   0.000  0.00  0.00    -0.126 NA
ATOM      3  C   LIG    1        6.563   4.295   0.000  0.00  0.00    +0.146 C 
ATOM      4  N   LIG    1        7.527   3.146   0.000  0.00  0.00    -0.136 NA
ENDROOT
TORSDOF 0
REMARK  Name = molecules/QIMGFXOHTOXMQP-GFAGFCTOSA-N.pdb
REMARK                            x       y       z     vdW  Elec       q    Type
REMARK                         _______ _______ _______ _____ _____    ______ ____
ROOT
ATOM      1  C   LIG    1        2.855   2.880   0.000  0.00  0.00    +0.000 C 
ENDROOT
TORSDOF 0
REMARK  Name = molecules/QIMGFXOHTOXMQP-GFAGFCTOSA-N.pdb
REMARK                            x       y       z     vdW  Elec       q    Type
REMARK                         _______ _______ _______ _____ _____    ______ ____
ROOT
ATOM      1  O   HOH    1        0.229   4.253   0.000  0.00  0.00    -0.410 OA
ATOM      2  H   HOH    0        0.028   2.905   0.000  0.00  0.00    +0.205 HD
ATOM      3  H   HOH    0        1.367   4.891   0.000  0.00  0.00    +0.205 HD
ENDROOT
TORSDOF 0
REMARK  Name = molecules/QIMGFXOHTOXMQP-GFAGFCTOSA-N.pdb
REMARK                            x       y       z     vdW  Elec       q    Type
REMARK                         _______ _______ _______ _____ _____    ______ ____
ROOT
ATOM      1  C   LIG    1        6.408  -4.313   0.000  0.00  0.00    +0.000 C 
ENDROOT
TORSDOF 0
REMARK  Name = molecules/QIMGFXOHTOXMQP-GFAGFCTOSA-N.pdb
REMARK                            x       y       z     vdW  Elec       q    Type
REMARK                         _______ _______ _______ _____ _____    ______ ____
ROOT
ATOM      1  C   LIG    1       -0.750  -6.182   0.000  0.00  0.00    +0.147 C 
ATOM      2  C   LIG    1       -2.159  -6.695   0.000  0.00  0.00    +0.032 C 
ENDROOT
BRANCH   1   3
ATOM      3  O   LIG    1       -0.489  -7.659   0.000  0.00  0.00    -0.389 OA
ATOM      4  H   LIG    1       -1.746  -8.137   0.000  0.00  0.00    +0.210 HD
ENDBRANCH   1   3
TORSDOF 1
REMARK  Name = molecules/QIMGFXOHTOXMQP-GFAGFCTOSA-N.pdb
REMARK                            x       y       z     vdW  Elec       q    Type
REMARK                         _______ _______ _______ _____ _____    ______ ____
ROOT
ATOM      1  C   LIG    1       -3.309  -5.731   0.000  0.00  0.00    +0.031 C 
ATOM      2  C   LIG    1       -4.718  -5.218   0.000  0.00  0.00    +0.197 C 
ATOM      3  O   LIG    1       -6.128  -4.705   0.000  0.00  0.00    -0.228 OA
ENDROOT
TORSDOF 0
REMARK  Name = molecules/QIMGFXOHTOXMQP-GFAGFCTOSA-N.pdb
REMARK                            x       y       z     vdW  Elec       q    Type
REMARK                         _______ _______ _______ _____ _____    ______ ____
ROOT
ATOM      1  C   LIG    1        7.712   5.260   0.000  0.00  0.00    +0.047 C 
ATOM      2  C   LIG    1        8.861   6.224   0.000  0.00  0.00    +0.174 C 
ATOM      3  O   LIG    1        8.601   7.701   0.000  0.00  0.00    -0.221 OA
ENDROOT
TORSDOF 0
REMARK  Name = molecules/QIMGFXOHTOXMQP-GFAGFCTOSA-N.pdb
REMARK                            x       y       z     vdW  Elec       q    Type
REMARK                         _______ _______ _______ _____ _____    ______ ____
ROOT
ATOM      1  C   LIG    1        9.004   3.407   0.000  0.00  0.00    +0.000 C 
ENDROOT
TORSDOF 0
REMARK  Name = molecules/QIMGFXOHTOXMQP-GFAGFCTOSA-N.pdb
REMARK                            x       y       z     vdW  Elec       q    Type
REMARK                         _______ _______ _______ _____ _____    ______ ____
ROOT
ATOM      1  C   LIG    1       -1.639  -8.623   0.000  0.00  0.00    +0.000 C 
ENDROOT
TORSDOF 0
REMARK  Name = molecules/QIMGFXOHTOXMQP-GFAGFCTOSA-N.pdb
REMARK                            x       y       z     vdW  Elec       q    Type
REMARK                         _______ _______ _______ _____ _____    ______ ____
ROOT
ATOM      1  O   LIG    1       -3.309  -7.659   0.000  0.00  0.00    -0.253 OA
ATOM      2  H   LIG    1       -4.059  -7.030   0.000  0.00  0.00    +0.253 HD
ENDROOT
BRANCH   1   3
ATOM      3  O   LIG    1       -3.130  -8.466   0.000  0.00  0.00    -0.253 OA
ATOM      4  H   LIG    1       -3.048  -9.136   0.000  0.00  0.00    +0.253 HD
ENDBRANCH   1   3
TORSDOF 1
REMARK  Name = molecules/QIMGFXOHTOXMQP-GFAGFCTOSA-N.pdb
REMARK                            x       y       z     vdW  Elec       q    Type
REMARK                         _______ _______ _______ _____ _____    ______ ____
ROOT
ATOM      1  C   LIG    1       10.482   3.667   0.000  0.00  0.00    -0.000 C 
ENDROOT
TORSDOF 0
REMARK  Name = molecules/QIMGFXOHTOXMQP-GFAGFCTOSA-N.pdb
REMARK                            x       y       z     vdW  Elec       q    Type
REMARK                         _______ _______ _______ _____ _____    ______ ____
ROOT
ATOM      1  N   LIG    1       10.271   5.711   0.000  0.00  0.00    -0.163 NA
ATOM      2  H   LIG    1        9.089   6.129   0.000  0.00  0.00    +0.163 HD
ENDROOT
TORSDOF 0
REMARK  Name = molecules/QIMGFXOHTOXMQP-GFAGFCTOSA-N.pdb
REMARK                            x       y       z     vdW  Elec       q    Type
REMARK                         _______ _______ _______ _____ _____    ______ ____
ROOT
ATOM      1  N   LIG    1       -1.378 -10.100   0.000  0.00  0.00    +0.000 NA
ENDROOT
TORSDOF 0
REMARK  Name = molecules/QIMGFXOHTOXMQP-GFAGFCTOSA-N.pdb
REMARK                            x       y       z     vdW  Elec       q    Type
REMARK                         _______ _______ _______ _____ _____    ______ ____
ROOT
ATOM      1  C   LIG    1       11.959   3.928   0.000  0.00  0.00    +0.249 C 
ATOM      2  N   LIG    1       12.923   2.779   0.000  0.00  0.00    -0.096 NA
ENDROOT
BRANCH   1   3
ATOM      3  O   LIG    1       12.472   5.337   0.000  0.00  0.00    -0.365 OA
ATOM      4  H   LIG    1       11.479   5.961   0.000  0.00  0.00    +0.212 HD
ENDBRANCH   1   3
TORSDOF 1
REMARK  Name = molecules/QIMGFXOHTOXMQP-GFAGFCTOSA-N.pdb
REMARK                            x       y       z     vdW  Elec       q    Type
REMARK                         _______ _______ _______ _____ _____    ______ ____
ROOT
ATOM      1  N   LIG    1       10.221   5.144   0.000  0.00  0.00    +0.000 NA
ENDROOT
TORSDOF 0
REMARK  Name = molecules/QIMGFXOHTOXMQP-GFAGFCTOSA-N.pdb
REMARK                            x       y       z     vdW  Elec       q    Type
REMARK                         _______ _______ _______ _____ _____    ______ ____
ROOT
ATOM      1  C   LIG    1       20.605   2.825   0.000  0.00  0.00    +0.087 C 
ATOM      2  N   LIG    1       20.814   4.310   0.000  0.00  0.00    -0.292 NA
ATOM      3  C   LIG    1       19.270   2.661   0.000  0.00  0.00    +0.042 C 
ENDROOT
BRANCH   2   4
ATOM      4  C   LIG    1       19.632   5.234   0.000  0.00  0.00    +0.110 C 
ATOM      5  C   LIG    1       20.555   6.416   0.000  0.00  0.00    +0.033 C 
ATOM      6  C   LIG    1       18.709   4.052   0.000  0.00  0.00    +0.019 C 
ENDBRANCH   2   4
TORSDOF 1
REMARK  Name = molecules/QIMGFXOHTOXMQP-GFAGFCTOSA-N.pdb
REMARK                            x       y       z     vdW  Elec       q    Type
REMARK                         _______ _______ _______ _____ _____    ______ ____
ROOT
ATOM      1  C   LIG    1       17.223   4.261   0.000  0.00  0.00    -0.004 C 
ATOM      2  C   LIG    1       16.300   3.079   0.000  0.00  0.00    -0.022 C 
ATOM      3  C   LIG    1       16.861   1.688   0.000  0.00  0.00    +0.026 C 
ENDROOT
TORSDOF 0
REMARK  Name = molecules/QIMGFXOHTOXMQP-GFAGFCTOSA-N.pdb
REMARK                            x       y       z     vdW  Elec       q    Type
REMARK                         _______ _______ _______ _____ _____    ______ ____
ROOT
ATOM      1  C   LIG    1       18.347   1.479   0.000  0.00  0.00    +0.000 C 
ENDROOT
TORSDOF 0
REMARK  Name = molecules/QIMGFXOHTOXMQP-GFAGFCTOSA-N.pdb
REMARK                            x       y       z     vdW  Elec       q    Type
REMARK                         _______ _______ _______ _____ _____    ______ ____
ROOT
ATOM      1  H   UNK    1       -0.023  -2.585   0.000  0.00  0.00    +0.000 HD
ENDROOT
TORSDOF 0
REMARK  Name = molecules/QIMGFXOHTOXMQP-GFAGFCTOSA-N.pdb
REMARK                            x       y       z     vdW  Elec       q    Type
REMARK                         _______ _______ _______ _____ _____    ______ ____
ROOT
ATOM      1  H   UNK    1       -2.719  -2.395   0.000  0.00  0.00    +0.000 HD
ENDROOT
TORSDOF 0
REMARK  Name = molecules/QIMGFXOHTOXMQP-GFAGFCTOSA-N.pdb
REMARK                            x       y       z     vdW  Elec       q    Type
REMARK                         _______ _______ _______ _____ _____    ______ ____
ROOT
ATOM      1  H   UNK    1        8.581   0.639   0.000  0.00  0.00    +0.000 HD
ENDROOT
TORSDOF 0
REMARK  Name = molecules/QIMGFXOHTOXMQP-GFAGFCTOSA-N.pdb
REMARK                            x       y       z     vdW  Elec       q    Type
REMARK                         _______ _______ _______ _____ _____    ______ ____
ROOT
ATOM      1  H   UNK    1       -4.059  -0.451   0.000  0.00  0.00    +0.000 HD
ENDROOT
TORSDOF 0
REMARK  Name = molecules/QIMGFXOHTOXMQP-GFAGFCTOSA-N.pdb
REMARK                            x       y       z     vdW  Elec       q    Type
REMARK                         _______ _______ _______ _____ _____    ______ ____
ROOT
ATOM      1  H   UNK    1       10.199  -3.338   0.000  0.00  0.00    +0.000 HD
ENDROOT
TORSDOF 0
REMARK  Name = molecules/QIMGFXOHTOXMQP-GFAGFCTOSA-N.pdb
REMARK                            x       y       z     vdW  Elec       q    Type
REMARK                         _______ _______ _______ _____ _____    ______ ____
ROOT
ATOM      1  H   UNK    1       -2.420   3.289   0.000  0.00  0.00    +0.000 HD
ENDROOT
TORSDOF 0
REMARK  Name = molecules/QIMGFXOHTOXMQP-GFAGFCTOSA-N.pdb
REMARK                            x       y       z     vdW  Elec       q    Type
REMARK                         _______ _______ _______ _____ _____    ______ ____
ROOT
ATOM      1  H   UNK    1        1.252   5.351   0.000  0.00  0.00    +0.000 HD
ENDROOT
TORSDOF 0
REMARK  Name = molecules/QIMGFXOHTOXMQP-GFAGFCTOSA-N.pdb
REMARK                            x       y       z     vdW  Elec       q    Type
REMARK                         _______ _______ _______ _____ _____    ______ ____
ROOT
ATOM      1  H   UNK    1        5.636  -3.027   0.000  0.00  0.00    +0.000 HD
ENDROOT
TORSDOF 0
REMARK  Name = molecules/QIMGFXOHTOXMQP-GFAGFCTOSA-N.pdb
REMARK                            x       y       z     vdW  Elec       q    Type
REMARK                         _______ _______ _______ _____ _____    ______ ____
ROOT
ATOM      1  H   UNK    1        1.530  -6.588   0.000  0.00  0.00    +0.000 HD
ENDROOT
TORSDOF 0
REMARK  Name = molecules/QIMGFXOHTOXMQP-GFAGFCTOSA-N.pdb
REMARK                            x       y       z     vdW  Elec       q    Type
REMARK                         _______ _______ _______ _____ _____    ______ ____
ROOT
ATOM      1  H   UNK    1        5.660  -5.813   0.000  0.00  0.00    +0.000 HD
ENDROOT
TORSDOF 0
REMARK  Name = molecules/QIMGFXOHTOXMQP-GFAGFCTOSA-N.pdb
REMARK                            x       y       z     vdW  Elec       q    Type
REMARK                         _______ _______ _______ _____ _____    ______ ____
ROOT
ATOM      1  H   UNK    1        9.265   1.930   0.000  0.00  0.00    +0.000 HD
ENDROOT
TORSDOF 0
REMARK  Name = molecules/QIMGFXOHTOXMQP-GFAGFCTOSA-N.pdb
REMARK                            x       y       z     vdW  Elec       q    Type
REMARK                         _______ _______ _______ _____ _____    ______ ____
ROOT
ATOM      1  H   UNK    1       -6.388  -3.227   0.000  0.00  0.00    +0.000 HD
ENDROOT
TORSDOF 0
REMARK  Name = molecules/QIMGFXOHTOXMQP-GFAGFCTOSA-N.pdb
REMARK                            x       y       z     vdW  Elec       q    Type
REMARK                         _______ _______ _______ _____ _____    ______ ____
ROOT
ATOM      1  H   UNK    1       11.294   6.808   0.000  0.00  0.00    +0.000 HD
ENDROOT
TORSDOF 0
REMARK  Name = molecules/QIMGFXOHTOXMQP-GFAGFCTOSA-N.pdb
REMARK                            x       y       z     vdW  Elec       q    Type
REMARK                         _______ _______ _______ _____ _____    ______ ____
ROOT
ATOM      1  H   UNK    1       -2.527 -11.065   0.000  0.00  0.00    +0.000 HD
ENDROOT
TORSDOF 0
REMARK  Name = molecules/QIMGFXOHTOXMQP-GFAGFCTOSA-N.pdb
REMARK                            x       y       z     vdW  Elec       q    Type
REMARK                         _______ _______ _______ _____ _____    ______ ____
ROOT
ATOM      1  H   UNK    1        0.031 -10.614   0.000  0.00  0.00    +0.000 HD
ENDROOT
TORSDOF 0
REMARK  Name = molecules/QIMGFXOHTOXMQP-GFAGFCTOSA-N.pdb
REMARK                            x       y       z     vdW  Elec       q    Type
REMARK                         _______ _______ _______ _____ _____    ______ ____
ROOT
ATOM      1  H   UNK    1        9.186 -10.270   0.000  0.00  0.00    +0.000 HD
ENDROOT
TORSDOF 0
REMARK  Name = molecules/QIMGFXOHTOXMQP-GFAGFCTOSA-N.pdb
REMARK                            x       y       z     vdW  Elec       q    Type
REMARK                         _______ _______ _______ _____ _____    ______ ____
ROOT
ATOM      1  H   UNK    1        5.018 -10.806   0.000  0.00  0.00    +0.000 HD
ENDROOT
TORSDOF 0
REMARK  Name = molecules/QIMGFXOHTOXMQP-GFAGFCTOSA-N.pdb
REMARK                            x       y       z     vdW  Elec       q    Type
REMARK                         _______ _______ _______ _____ _____    ______ ____
ROOT
ATOM      1  H   UNK    1       14.357   3.217   0.000  0.00  0.00    +0.000 HD
ENDROOT
TORSDOF 0
REMARK  Name = molecules/QIMGFXOHTOXMQP-GFAGFCTOSA-N.pdb
REMARK                            x       y       z     vdW  Elec       q    Type
REMARK                         _______ _______ _______ _____ _____    ______ ____
ROOT
ATOM      1  H   UNK    1       12.410   1.369   0.000  0.00  0.00    +0.000 HD
ENDROOT
TORSDOF 0
REMARK  Name = molecules/QIMGFXOHTOXMQP-GFAGFCTOSA-N.pdb
REMARK                            x       y       z     vdW  Elec       q    Type
REMARK                         _______ _______ _______ _____ _____    ______ ____
ROOT
ATOM      1  H   UNK    1       21.161  -2.555   0.000  0.00  0.00    +0.000 HD
ENDROOT
TORSDOF 0
REMARK  Name = molecules/QIMGFXOHTOXMQP-GFAGFCTOSA-N.pdb
REMARK                            x       y       z     vdW  Elec       q    Type
REMARK                         _______ _______ _______ _____ _____    ______ ____
ROOT
ATOM      1  H   UNK    1       18.688  -0.120   0.000  0.00  0.00    +0.000 HD
ENDROOT
TORSDOF 0
REMARK  Name = molecules/QIMGFXOHTOXMQP-GFAGFCTOSA-N.pdb
REMARK                            x       y       z     vdW  Elec       q    Type
REMARK                         _______ _______ _______ _____ _____    ______ ____
ROOT
ATOM      1  H   UNK    1       22.091   2.616   0.000  0.00  0.00    +0.000 HD
ENDROOT
TORSDOF 0
REMARK  Name = molecules/QIMGFXOHTOXMQP-GFAGFCTOSA-N.pdb
REMARK                            x       y       z     vdW  Elec       q    Type
REMARK                         _______ _______ _______ _____ _____    ______ ____
ROOT
ATOM      1  H   UNK    1       22.263   4.698   0.000  0.00  0.00    +0.000 HD
ENDROOT
TORSDOF 0
