REMARK  Name = molecules/QJBZDBLBQWFTPZ-UHFFFAOYSA-N.pdb
REMARK                            x       y       z     vdW  Elec       q    Type
REMARK                         _______ _______ _______ _____ _____    ______ ____
ROOT
ATOM      1  C   LIG    1       -1.339  -0.485  -0.075  0.00  0.00    +0.152 A 
ATOM      2  C   LIG    1       -0.274   0.331   0.156  0.00  0.00    +0.017 A 
ATOM      3  C   LIG    1       -0.487   1.641   0.584  0.00  0.00    +0.011 A 
ATOM      4  C   LIG    1       -1.770   2.126   0.778  0.00  0.00    +0.002 A 
ATOM      5  C   LIG    1       -2.846   1.287   0.542  0.00  0.00    +0.022 A 
ATOM      6  C   LIG    1       -2.651  -0.004   0.121  0.00  0.00    +0.072 A 
ATOM      7 CL   LIG    1       -3.993  -1.084  -0.187  0.00  0.00    -0.081 Cl
ENDROOT
BRANCH   2   8
ATOM      8  C   LIG    1        1.101  -0.150  -0.009  0.00  0.00    +0.020 A 
ATOM      9  C   LIG    1        1.748  -1.213   0.547  0.00  0.00    +0.092 A 
ATOM     10  N   LIG    1        3.035  -1.256   0.130  0.00  0.00    -0.365 N 
ATOM     11  H   LIG    1        3.741  -1.992   0.425  0.00  0.00    +0.165 HD
ATOM     12  C   LIG    1        3.237  -0.227  -0.694  0.00  0.00    +0.103 A 
ATOM     13  C   LIG    1        2.065   0.482  -0.807  0.00  0.00    +0.066 A 
ATOM     14 CL   LIG    1        1.751   1.933  -1.765  0.00  0.00    -0.081 Cl
ENDBRANCH   2   8
BRANCH   1  15
ATOM     15  N   LIG    1       -1.178  -1.791  -0.566  0.00  0.00    +0.058 N 
ATOM     16  O   LIG    1       -0.907  -2.756   0.144  0.00  0.00    -0.126 OA
ATOM     17  O   LIG    1       -1.363  -1.980  -1.931  0.00  0.00    -0.126 OA
ENDBRANCH   1  15
TORSDOF 2
