REMARK  Name = molecules/QJJXOEFWXSQISU-SFHVURJKSA-N.pdb
REMARK                            x       y       z     vdW  Elec       q    Type
REMARK                         _______ _______ _______ _____ _____    ______ ____
ROOT
ATOM      1  N   LIG    1       -0.917  -0.322   0.524  0.00  0.00    -0.269 N 
ATOM      2  C   LIG    1        0.068   0.710   0.705  0.00  0.00    +0.221 C 
ATOM      3  O   LIG    1       -0.287   1.514   1.644  0.00  0.00    -0.275 OA
ATOM      4  C   LIG    1        1.332   1.053   0.099  0.00  0.00    +0.115 C 
ATOM      5  C   LIG    1        2.266   0.010  -0.329  0.00  0.00    +0.090 C 
ATOM      6  S   LIG    1        2.186  -1.541   0.539  0.00  0.00    -0.115 S 
ATOM      7  C   LIG    1        0.625  -2.327   0.111  0.00  0.00    +0.030 A 
ATOM      8  C   LIG    1        0.753  -3.628  -0.255  0.00  0.00    +0.016 A 
ATOM      9  C   LIG    1       -0.412  -4.313  -0.587  0.00  0.00    +0.001 A 
ATOM     10  C   LIG    1       -1.636  -3.679  -0.538  0.00  0.00    +0.002 A 
ATOM     11  C   LIG    1       -1.745  -2.347  -0.160  0.00  0.00    +0.024 A 
ATOM     12  C   LIG    1       -0.611  -1.666   0.166  0.00  0.00    +0.050 A 
ENDROOT
BRANCH   5  13
ATOM     13  C   LIG    1        3.681   0.511  -0.181  0.00  0.00    -0.034 A 
ATOM     14  C   LIG    1        4.042   0.881   1.099  0.00  0.00    +0.005 A 
ATOM     15  C   LIG    1        5.308   1.342   1.300  0.00  0.00    +0.000 A 
ATOM     16  C   LIG    1        6.219   1.445   0.270  0.00  0.00    +0.000 A 
ATOM     17  C   LIG    1        5.861   1.073  -1.028  0.00  0.00    +0.000 A 
ATOM     18  C   LIG    1        4.562   0.603  -1.220  0.00  0.00    +0.005 A 
ENDBRANCH   5  13
BRANCH   1  19
ATOM     19  C   LIG    1       -2.301   0.063   0.746  0.00  0.00    +0.129 C 
BRANCH  19  20
ATOM     20  C   LIG    1       -2.996   0.602  -0.458  0.00  0.00    +0.103 C 
BRANCH  20  21
ATOM     21  N   LIG    1       -4.372   0.953  -0.208  0.00  0.00    -0.307 NA
ATOM     22  C   LIG    1       -4.525   2.082   0.664  0.00  0.00    +0.104 C 
ATOM     23  C   LIG    1       -5.121   1.084  -1.445  0.00  0.00    +0.104 C 
ENDBRANCH  20  21
ENDBRANCH  19  20
ENDBRANCH   1  19
TORSDOF 4
