REMARK  Name = molecules/QKDHBVNJCZBTMR-LLVKDONJSA-N.pdb
REMARK                            x       y       z     vdW  Elec       q    Type
REMARK                         _______ _______ _______ _____ _____    ______ ____
ROOT
ATOM      1  O   LIG    1       -1.564   3.850   2.409  0.00  0.00    -0.286 OA
ATOM      2  C   LIG    1       -1.822   2.882   1.645  0.00  0.00    +0.203 A 
ATOM      3  C   LIG    1       -0.839   1.946   1.398  0.00  0.00    +0.049 A 
ATOM      4  C   LIG    1        0.425   2.012   1.948  0.00  0.00    +0.054 A 
ATOM      5  C   LIG    1        1.370   1.042   1.662  0.00  0.00    +0.145 A 
ATOM      6  F   LIG    1        2.621   1.115   2.211  0.00  0.00    -0.204 F 
ATOM      7  C   LIG    1        1.064  -0.013   0.819  0.00  0.00    +0.067 A 
ATOM      8  C   LIG    1       -0.209  -0.045   0.289  0.00  0.00    +0.053 A 
ATOM      9  C   LIG    1       -1.171   0.907   0.555  0.00  0.00    +0.059 A 
ATOM     10  N   LIG    1       -2.418   0.828   0.004  0.00  0.00    -0.312 N 
ATOM     11  C   LIG    1       -3.364   1.753   0.258  0.00  0.00    +0.110 A 
ATOM     12  C   LIG    1       -3.077   2.815   1.098  0.00  0.00    +0.122 A 
ENDROOT
BRANCH   7  13
ATOM     13  N   LIG    1        2.019  -1.022   0.511  0.00  0.00    -0.325 N 
ATOM     14  C   LIG    1        2.629  -1.868   1.531  0.00  0.00    +0.120 C 
ATOM     15  C   LIG    1        4.108  -1.598   1.524  0.00  0.00    +0.100 C 
ATOM     16  N   LIG    1        4.485  -0.756   0.405  0.00  0.00    -0.311 NA
ATOM     17  H   LIG    1        5.500  -0.664   0.293  0.00  0.00    +0.122 HD
ATOM     18  C   LIG    1        3.954  -1.238  -0.855  0.00  0.00    +0.068 C 
ATOM     19  C   LIG    1        4.375  -0.209  -1.908  0.00  0.00    +0.025 C 
ATOM     20  C   LIG    1        2.449  -1.269  -0.859  0.00  0.00    +0.123 C 
ENDBRANCH   7  13
BRANCH  10  21
ATOM     21  C   LIG    1       -2.662  -0.276  -0.848  0.00  0.00    +0.082 A 
ATOM     22  C   LIG    1       -3.280  -1.378  -0.314  0.00  0.00    +0.150 A 
ATOM     23  F   LIG    1       -3.659  -1.423   1.007  0.00  0.00    -0.203 F 
ATOM     24  C   LIG    1       -3.573  -2.519  -1.045  0.00  0.00    +0.078 A 
ATOM     25  C   LIG    1       -3.199  -2.491  -2.375  0.00  0.00    +0.126 A 
ATOM     26  C   LIG    1       -2.579  -1.400  -2.932  0.00  0.00    +0.040 A 
ATOM     27  F   LIG    1       -3.486  -3.615  -3.100  0.00  0.00    -0.205 F 
ATOM     28  C   LIG    1       -2.304  -0.282  -2.174  0.00  0.00    +0.032 A 
ENDBRANCH  10  21
BRANCH  12  29
ATOM     29  C   LIG    1       -4.119   3.789   1.348  0.00  0.00    +0.342 C 
ATOM     30  O   LIG    1       -3.890   4.758   2.102  0.00  0.00    -0.245 OA
BRANCH  29  31
ATOM     31  O   LIG    1       -5.372   3.684   0.775  0.00  0.00    -0.477 OA
ATOM     32  H   LIG    1       -5.796   4.408   0.205  0.00  0.00    +0.295 HD
ENDBRANCH  29  31
ENDBRANCH  12  29
TORSDOF 4
