REMARK  Name = molecules/QKDRXGFQVGOQKS-CRSSMBPESA-N.pdb
REMARK                            x       y       z     vdW  Elec       q    Type
REMARK                         _______ _______ _______ _____ _____    ______ ____
ROOT
ATOM      1  C   LIG    1        0.745  -1.512  -1.403  0.00  0.00    -0.024 A 
ATOM      2  C   LIG    1        0.908  -2.732  -0.820  0.00  0.00    +0.044 A 
ATOM      3  C   LIG    1       -0.204  -3.321  -0.235  0.00  0.00    +0.020 A 
ATOM      4  C   LIG    1       -1.443  -2.665  -0.257  0.00  0.00    +0.008 A 
ATOM      5  C   LIG    1       -1.613  -1.442  -0.840  0.00  0.00    -0.016 A 
ATOM      6 CL   LIG    1        2.417  -3.615  -0.763  0.00  0.00    -0.083 Cl
ATOM      7  C   LIG    1       -0.475  -0.874  -1.420  0.00  0.00    +0.011 A 
ENDROOT
BRANCH   5   8
ATOM      8  C   LIG    1       -2.911  -0.735  -0.869  0.00  0.00    +0.181 C 
ATOM      9  C   LIG    1       -4.055  -1.440  -0.240  0.00  0.00    +0.179 C 
ATOM     10  C   LIG    1       -4.299  -0.977   1.192  0.00  0.00    +0.178 C 
ATOM     11  C   LIG    1       -4.480   0.525   1.241  0.00  0.00    +0.184 C 
ATOM     12  C   LIG    1       -3.892   1.195   0.023  0.00  0.00    +0.207 C 
ATOM     13  O   LIG    1       -2.801   0.595  -0.509  0.00  0.00    -0.353 OA
BRANCH  10  14
ATOM     14  O   LIG    1       -3.231  -1.325   1.987  0.00  0.00    -0.386 OA
ATOM     15  H   LIG    1       -3.420  -2.240   2.364  0.00  0.00    +0.210 HD
ENDBRANCH  10  14
BRANCH  11  16
ATOM     16  O   LIG    1       -5.851   0.772   1.290  0.00  0.00    -0.386 OA
ATOM     17  H   LIG    1       -6.245   0.865   0.376  0.00  0.00    +0.210 HD
ENDBRANCH  11  16
BRANCH  12  18
ATOM     18  S   LIG    1       -3.539   2.952   0.344  0.00  0.00    -0.131 S 
ATOM     19  C   LIG    1       -5.023   3.749   1.063  0.00  0.00    +0.087 C 
ENDBRANCH  12  18
BRANCH   9  20
ATOM     20  O   LIG    1       -5.252  -1.059  -0.915  0.00  0.00    -0.386 OA
ATOM     21  H   LIG    1       -5.301  -1.516  -1.790  0.00  0.00    +0.210 HD
ENDBRANCH   9  20
ENDBRANCH   5   8
BRANCH   1  22
ATOM     22  C   LIG    1        1.883  -0.818  -2.038  0.00  0.00    +0.071 C 
BRANCH  22  28
ATOM     23  C   LIG    1        2.432   0.996  -0.492  0.00  0.00    +0.007 A 
ATOM     24  C   LIG    1        3.324   1.616   0.351  0.00  0.00    +0.046 A 
ATOM     25  C   LIG    1        4.598   1.095   0.572  0.00  0.00    +0.121 A 
ATOM     26  C   LIG    1        4.996  -0.061  -0.051  0.00  0.00    +0.046 A 
ATOM     27  C   LIG    1        4.067  -0.668  -0.902  0.00  0.00    +0.007 A 
ATOM     28  C   LIG    1        2.813  -0.164  -1.126  0.00  0.00    -0.043 A 
BRANCH  25  29
ATOM     29  O   LIG    1        5.430   1.767   1.426  0.00  0.00    -0.492 OA
BRANCH  29  30
ATOM     30  C   LIG    1        6.722   1.334   1.701  0.00  0.00    +0.225 C 
ATOM     31  C   LIG    1        7.574   1.312   0.453  0.00  0.00    +0.048 C 
ENDBRANCH  29  30
ENDBRANCH  25  29
ENDBRANCH  22  28
ENDBRANCH   1  22
TORSDOF 9
