REMARK  Name = molecules/QKHROXOPRBWBDD-UHFFFAOYSA-N.pdb
REMARK                            x       y       z     vdW  Elec       q    Type
REMARK                         _______ _______ _______ _____ _____    ______ ____
ROOT
ATOM      1  C   LIG    1       -2.283   0.301   0.186  0.00  0.00    +0.046 C 
ATOM      2  C   LIG    1       -0.840  -0.006   0.043  0.00  0.00    -0.019 A 
ATOM      3  C   LIG    1        0.131   0.939   0.185  0.00  0.00    +0.064 A 
ATOM      4 BR   LIG    1       -0.402   2.737   0.586  0.00  0.00    -0.046 Br
ATOM      5  C   LIG    1        1.470   0.651   0.052  0.00  0.00    +0.145 A 
ATOM      6  C   LIG    1        1.851  -0.638  -0.235  0.00  0.00    +0.061 A 
ATOM      7  C   LIG    1        0.902  -1.631  -0.388  0.00  0.00    +0.034 A 
ATOM      8 BR   LIG    1        3.692  -1.056  -0.422  0.00  0.00    -0.046 Br
ATOM      9  C   LIG    1       -0.434  -1.299  -0.246  0.00  0.00    +0.023 A 
ATOM     10 BR   LIG    1       -1.804  -2.631  -0.445  0.00  0.00    -0.050 Br
ENDROOT
BRANCH   5  11
ATOM     11  O   LIG    1        2.448   1.617   0.198  0.00  0.00    -0.505 OA
ATOM     12  H   LIG    1        2.143   2.575   0.412  0.00  0.00    +0.292 HD
ENDBRANCH   5  11
TORSDOF 1
