REMARK  Name = molecules/QKLSCPPJEVXONT-UHFFFAOYSA-N.pdb
REMARK                            x       y       z     vdW  Elec       q    Type
REMARK                         _______ _______ _______ _____ _____    ______ ____
ROOT
ATOM      1  S   LIG    1        1.034  -1.746  -1.953  0.00  0.00    +0.073 S 
ATOM      2  O   LIG    1        0.136  -2.935  -1.756  0.00  0.00    -0.150 OA
ATOM      3  O   LIG    1        2.011  -2.121  -3.043  0.00  0.00    -0.150 OA
ENDROOT
BRANCH   1   4
ATOM      4  C   LIG    1        1.891  -1.430  -0.479  0.00  0.00    +0.109 A 
ATOM      5  C   LIG    1        1.411  -1.771   0.761  0.00  0.00    +0.030 A 
ATOM      6  C   LIG    1        2.155  -1.493   1.879  0.00  0.00    +0.024 A 
ATOM      7  C   LIG    1        3.378  -0.876   1.775  0.00  0.00    +0.025 A 
ATOM      8  C   LIG    1        3.876  -0.527   0.527  0.00  0.00    +0.024 A 
ATOM      9  C   LIG    1        3.116  -0.813  -0.582  0.00  0.00    +0.030 A 
BRANCH   7  10
ATOM     10  N   LIG    1        4.117  -0.606   2.953  0.00  0.00    -0.358 N 
ATOM     11  H   LIG    1        4.568  -1.375   3.470  0.00  0.00    +0.142 HD
ATOM     12  H   LIG    1        4.201   0.364   3.289  0.00  0.00    +0.142 HD
ENDBRANCH   7  10
ENDBRANCH   1   4
BRANCH   1  13
ATOM     13  N   LIG    1        0.164  -0.350  -2.422  0.00  0.00    -0.199 N 
ATOM     14  H   LIG    1        0.380   0.117  -3.329  0.00  0.00    +0.175 HD
BRANCH  13  15
ATOM     15  C   LIG    1       -0.855   0.191  -1.595  0.00  0.00    +0.145 A 
ATOM     16  N   LIG    1       -1.142  -0.396  -0.435  0.00  0.00    -0.216 NA
ATOM     17  C   LIG    1       -2.093   0.076   0.379  0.00  0.00    +0.132 A 
ATOM     18  C   LIG    1       -2.354  -0.633   1.654  0.00  0.00    +0.088 C 
ATOM     19  N   LIG    1       -2.778   1.181   0.007  0.00  0.00    -0.198 NA
ATOM     20  C   LIG    1       -2.526   1.808  -1.151  0.00  0.00    +0.219 A 
ATOM     21  C   LIG    1       -1.549   1.314  -1.976  0.00  0.00    +0.112 A 
BRANCH  20  22
ATOM     22  O   LIG    1       -3.253   2.932  -1.486  0.00  0.00    -0.480 OA
ATOM     23  C   LIG    1       -4.258   3.486  -0.695  0.00  0.00    +0.279 C 
ENDBRANCH  20  22
ENDBRANCH  13  15
ENDBRANCH   1  13
TORSDOF 5
