REMARK  Name = molecules/QLGIFPJNYPWBMQ-UHFFFAOYSA-N.pdb
REMARK                            x       y       z     vdW  Elec       q    Type
REMARK                         _______ _______ _______ _____ _____    ______ ____
ROOT
ATOM      1  C   LIG    1        3.555   0.260   0.524  0.00  0.00    +0.059 A 
ATOM      2  C   LIG    1        2.407   0.278   1.280  0.00  0.00    +0.017 A 
ATOM      3  C   LIG    1        1.134   0.196   0.741  0.00  0.00    +0.024 A 
ATOM      4  C   LIG    1        0.972   0.091  -0.608  0.00  0.00    +0.033 A 
ATOM      5  C   LIG    1        2.115   0.071  -1.405  0.00  0.00    +0.024 A 
ATOM      6  C   LIG    1        3.366   0.154  -0.836  0.00  0.00    +0.017 A 
ENDROOT
BRANCH   4   7
ATOM      7  N   LIG    1       -0.283   0.005  -1.240  0.00  0.00    -0.284 N 
ATOM      8  C   LIG    1       -1.554  -0.037  -0.624  0.00  0.00    +0.231 C 
ATOM      9  O   LIG    1       -1.725  -0.002   0.604  0.00  0.00    -0.274 OA
ATOM     10  H   LIG    1       -0.312  -0.033  -2.308  0.00  0.00    +0.155 HD
BRANCH   8  11
ATOM     11  C   LIG    1       -2.786  -0.130  -1.500  0.00  0.00    +0.180 C 
BRANCH  11  12
ATOM     12  N   LIG    1       -3.990  -0.170  -0.721  0.00  0.00    -0.294 NA
ATOM     13  C   LIG    1       -4.182  -1.360   0.043  0.00  0.00    +0.085 C 
ATOM     14  C   LIG    1       -5.426  -1.128   0.912  0.00  0.00    +0.015 C 
ATOM     15  C   LIG    1       -6.351  -0.222   0.114  0.00  0.00    +0.002 C 
ATOM     16  C   LIG    1       -5.801   1.188   0.011  0.00  0.00    +0.015 C 
ATOM     17  C   LIG    1       -4.272   1.051  -0.032  0.00  0.00    +0.085 C 
ENDBRANCH  11  12
ENDBRANCH   8  11
ENDBRANCH   4   7
BRANCH   1  18
ATOM     18  C   LIG    1        4.879   0.348   1.124  0.00  0.00    +0.339 C 
ATOM     19  O   LIG    1        4.957   0.443   2.381  0.00  0.00    -0.245 OA
BRANCH  18  20
ATOM     20  O   LIG    1        6.048   0.335   0.415  0.00  0.00    -0.461 OA
BRANCH  20  21
ATOM     21  C   LIG    1        7.346   0.421   1.006  0.00  0.00    +0.229 C 
ATOM     22  C   LIG    1        8.333   0.369  -0.143  0.00  0.00    +0.048 C 
ENDBRANCH  20  21
ENDBRANCH  18  20
ENDBRANCH   1  18
TORSDOF 6
