REMARK  Name = molecules/QMBJSIBWORFWQT-DFXBJWIESA-N.pdb
REMARK                            x       y       z     vdW  Elec       q    Type
REMARK                         _______ _______ _______ _____ _____    ______ ____
ROOT
ATOM      1  C   LIG    1       -2.744  -0.239  -0.493  0.00  0.00    +0.176 C 
ATOM      2  C   LIG    1       -1.392   0.192  -0.085  0.00  0.00    +0.018 C 
ATOM      3  C   LIG    1       -0.843  -0.371   1.190  0.00  0.00    +0.011 C 
ATOM      4  C   LIG    1        0.629  -0.078   1.356  0.00  0.00    +0.005 C 
ATOM      5  C   LIG    1        1.468  -0.343   0.162  0.00  0.00    +0.007 C 
ATOM      6  C   LIG    1        2.870   0.171   0.332  0.00  0.00    -0.002 C 
ATOM      7  C   LIG    1        3.574  -0.668   1.345  0.00  0.00    +0.019 C 
ATOM      8  C   LIG    1        5.010  -0.260   1.569  0.00  0.00    +0.080 C 
ATOM      9  C   LIG    1        5.661   0.229   0.346  0.00  0.00    +0.156 C 
ATOM     10  O   LIG    1        6.788   0.757   0.425  0.00  0.00    -0.293 OA
ATOM     11  C   LIG    1        4.937   0.066  -0.934  0.00  0.00    +0.051 C 
ATOM     12  C   LIG    1        2.868   1.612   0.782  0.00  0.00    +0.016 C 
ATOM     13  C   LIG    1        3.625   0.036  -0.964  0.00  0.00    -0.020 C 
ATOM     14  C   LIG    1        2.938  -0.134  -2.226  0.00  0.00    +0.041 C 
ATOM     15  C   LIG    1        1.637  -0.034  -2.283  0.00  0.00    -0.003 C 
ATOM     16 CL   LIG    1        3.849  -0.481  -3.713  0.00  0.00    -0.084 Cl
ATOM     17  C   LIG    1        0.825   0.248  -1.109  0.00  0.00    +0.021 C 
ATOM     18  C   LIG    1       -1.239   1.697  -0.052  0.00  0.00    +0.016 C 
ATOM     19  C   LIG    1       -0.485  -0.426  -1.162  0.00  0.00    +0.006 C 
ATOM     20  C   LIG    1       -1.308  -0.332  -2.378  0.00  0.00    +0.009 C 
ATOM     21  C   LIG    1       -2.553  -1.051  -1.824  0.00  0.00    +0.057 C 
ENDROOT
BRANCH   1  22
ATOM     22  C   LIG    1       -3.674   0.827  -0.926  0.00  0.00    +0.174 C 
ATOM     23  C   LIG    1       -5.088   0.826  -0.532  0.00  0.00    +0.090 C 
ATOM     24  O   LIG    1       -3.267   1.720  -1.622  0.00  0.00    -0.293 OA
ENDBRANCH   1  22
BRANCH   1  25
ATOM     25  O   LIG    1       -3.365  -1.139   0.427  0.00  0.00    -0.450 OA
BRANCH  25  26
ATOM     26  C   LIG    1       -3.911  -0.760   1.635  0.00  0.00    +0.305 C 
ATOM     27  C   LIG    1       -4.533  -1.760   2.539  0.00  0.00    +0.136 C 
ATOM     28  O   LIG    1       -3.900   0.437   2.010  0.00  0.00    -0.251 OA
ENDBRANCH  25  26
ENDBRANCH   1  25
TORSDOF 3
