REMARK  Name = molecules/QMHSXPLYMTVAMK-UHFFFAOYSA-N.pdb
REMARK                            x       y       z     vdW  Elec       q    Type
REMARK                         _______ _______ _______ _____ _____    ______ ____
ROOT
ATOM      1  C   LIG    1       -0.910   0.789  -0.083  0.00  0.00    +0.012 C 
ATOM      2  C   LIG    1       -0.260  -0.311  -0.081  0.00  0.00    +0.026 C 
ENDROOT
BRANCH   2   3
ATOM      3  C   LIG    1        1.184  -0.549  -0.117  0.00  0.00    +0.042 A 
ATOM      4  C   LIG    1        1.625  -1.765   0.454  0.00  0.00    +0.026 A 
ATOM      5  C   LIG    1        2.947  -2.041   0.607  0.00  0.00    +0.012 A 
ATOM      6  C   LIG    1        3.859  -1.103   0.193  0.00  0.00    -0.000 A 
ATOM      7  C   LIG    1        5.229  -1.359   0.356  0.00  0.00    +0.029 C 
ATOM      8  C   LIG    1        6.170  -0.441  -0.031  0.00  0.00    +0.014 C 
ATOM      9  C   LIG    1        5.724   0.734  -0.583  0.00  0.00    +0.070 C 
ATOM     10  C   LIG    1        4.350   0.979  -0.742  0.00  0.00    +0.010 C 
ATOM     11  C   LIG    1        3.394   0.067  -0.359  0.00  0.00    +0.046 A 
ATOM     12  N   LIG    1        2.059   0.343  -0.517  0.00  0.00    -0.344 N 
ATOM     13  C   LIG    1        1.687   1.563  -1.248  0.00  0.00    +0.149 C 
BRANCH   8  14
ATOM     14  N   LIG    1        7.579  -0.702   0.135  0.00  0.00    -0.339 N 
ATOM     15  C   LIG    1        8.019  -1.935   0.709  0.00  0.00    +0.128 C 
ATOM     16  C   LIG    1        8.572   0.273  -0.272  0.00  0.00    +0.128 C 
ENDBRANCH   8  14
ENDBRANCH   2   3
BRANCH   1  23
ATOM     17  C   LIG    1       -3.304  -1.394   0.143  0.00  0.00    +0.064 C 
ATOM     18  C   LIG    1       -3.394   0.091   0.029  0.00  0.00    +0.028 A 
ATOM     19  N   LIG    1       -4.594   0.766   0.003  0.00  0.00    -0.317 N 
ATOM     20  C   LIG    1       -4.325   2.072  -0.095  0.00  0.00    +0.022 A 
ATOM     21  C   LIG    1       -2.971   2.255  -0.132  0.00  0.00    +0.031 A 
ATOM     22  C   LIG    1       -5.411   3.112  -0.149  0.00  0.00    +0.064 C 
ATOM     23  C   LIG    1       -2.351   0.977  -0.053  0.00  0.00    -0.004 A 
BRANCH  19  24
ATOM     24  C   LIG    1       -5.848   0.129   0.070  0.00  0.00    +0.047 A 
ATOM     25  C   LIG    1       -6.670   0.284   1.180  0.00  0.00    +0.026 A 
ATOM     26  C   LIG    1       -7.883  -0.352   1.209  0.00  0.00    +0.002 A 
ATOM     27  C   LIG    1       -8.321  -1.149   0.168  0.00  0.00    +0.000 A 
ATOM     28  C   LIG    1       -7.520  -1.313  -0.936  0.00  0.00    +0.002 A 
ATOM     29  C   LIG    1       -6.305  -0.675  -0.965  0.00  0.00    +0.026 A 
ENDBRANCH  19  24
ENDBRANCH   1  23
TORSDOF 4
