REMARK  Name = molecules/QMMMGQKKOKYDMN-UHFFFAOYSA-N.pdb
REMARK                            x       y       z     vdW  Elec       q    Type
REMARK                         _______ _______ _______ _____ _____    ______ ____
ROOT
ATOM      1  C   LIG    1       -4.728  -1.425   0.158  0.00  0.00    +0.145 A 
ATOM      2  C   LIG    1       -5.908  -0.745   0.022  0.00  0.00    +0.088 A 
ATOM      3  C   LIG    1       -5.973   0.575  -0.369  0.00  0.00    +0.103 A 
ATOM      4  C   LIG    1       -4.772   1.190  -0.623  0.00  0.00    +0.046 A 
ATOM      5  C   LIG    1       -3.557   0.531  -0.497  0.00  0.00    +0.052 A 
ATOM      6  C   LIG    1       -3.495  -0.777  -0.108  0.00  0.00    +0.159 A 
ENDROOT
BRANCH   1   7
ATOM      7  N   LIG    1       -4.705  -2.782   0.562  0.00  0.00    -0.240 N 
ATOM      8  H   LIG    1       -3.826  -3.306   0.668  0.00  0.00    +0.265 HD
BRANCH   7   9
ATOM      9  C   LIG    1       -5.931  -3.436   0.830  0.00  0.00    +0.381 C 
ATOM     10  N   LIG    1       -6.586  -3.379   2.086  0.00  0.00    -0.289 N 
ATOM     11  H   LIG    1       -6.564  -4.182   2.755  0.00  0.00    +0.255 HD
ATOM     12  H   LIG    1       -7.112  -2.526   2.380  0.00  0.00    +0.255 HD
BRANCH   9  13
ATOM     13  N   LIG    1       -6.474  -4.113  -0.116  0.00  0.00    -0.129 NA
ATOM     14  H   LIG    1       -6.063  -4.207  -1.068  0.00  0.00    +0.306 HD
ENDBRANCH   9  13
ENDBRANCH   7   9
ENDBRANCH   1   7
BRANCH   3  15
ATOM     15  N   LIG    1       -7.216   1.251  -0.498  0.00  0.00    -0.244 N 
ATOM     16  H   LIG    1       -8.086   0.731  -0.292  0.00  0.00    +0.265 HD
BRANCH  15  17
ATOM     17  C   LIG    1       -7.228   2.613  -0.906  0.00  0.00    +0.381 C 
ATOM     18  N   LIG    1       -7.828   2.996  -2.147  0.00  0.00    -0.289 N 
ATOM     19  H   LIG    1       -8.623   3.654  -2.183  0.00  0.00    +0.255 HD
ATOM     20  H   LIG    1       -7.467   2.612  -3.031  0.00  0.00    +0.255 HD
BRANCH  17  21
ATOM     21  N   LIG    1       -6.712   3.560  -0.198  0.00  0.00    -0.129 NA
ATOM     22  H   LIG    1       -6.248   3.379   0.729  0.00  0.00    +0.306 HD
ENDBRANCH  17  21
ENDBRANCH  15  17
ENDBRANCH   3  15
BRANCH   6  23
ATOM     23  O   LIG    1       -2.363  -1.491   0.037  0.00  0.00    -0.489 OA
BRANCH  23  24
ATOM     24  C   LIG    1       -1.048  -1.125  -0.122  0.00  0.00    +0.229 C 
BRANCH  24  25
ATOM     25  C   LIG    1       -0.515  -0.101   0.833  0.00  0.00    +0.041 C 
BRANCH  25  26
ATOM     26  C   LIG    1        0.925   0.204   0.491  0.00  0.00    +0.003 C 
BRANCH  26  27
ATOM     27  C   LIG    1        1.802  -0.985   0.588  0.00  0.00    +0.000 C 
BRANCH  27  28
ATOM     28  C   LIG    1        3.268  -0.652   0.286  0.00  0.00    +0.000 C 
BRANCH  28  29
ATOM     29  C   LIG    1        3.428  -0.117  -1.079  0.00  0.00    +0.000 C 
BRANCH  29  30
ATOM     30  C   LIG    1        4.763   0.225  -1.567  0.00  0.00    -0.000 C 
BRANCH  30  31
ATOM     31  C   LIG    1        5.480   1.335  -0.915  0.00  0.00    -0.000 C 
BRANCH  31  32
ATOM     32  C   LIG    1        5.823   1.290   0.522  0.00  0.00    -0.000 C 
BRANCH  32  33
ATOM     33  C   LIG    1        6.650   0.103   0.918  0.00  0.00    -0.000 C 
BRANCH  33  34
ATOM     34  C   LIG    1        7.954   0.134   0.140  0.00  0.00    -0.003 C 
ATOM     35  C   LIG    1        8.677   1.408   0.474  0.00  0.00    +0.004 C 
ENDBRANCH  33  34
ENDBRANCH  32  33
ENDBRANCH  31  32
ENDBRANCH  30  31
ENDBRANCH  29  30
ENDBRANCH  28  29
ENDBRANCH  27  28
ENDBRANCH  26  27
ENDBRANCH  25  26
ENDBRANCH  24  25
ENDBRANCH  23  24
ENDBRANCH   6  23
TORSDOF 18
