REMARK  Name = molecules/QMNFFXRFOJIOKZ-UHFFFAOYSA-N.pdb
REMARK                            x       y       z     vdW  Elec       q    Type
REMARK                         _______ _______ _______ _____ _____    ______ ____
ROOT
ATOM      1  C   LIG    1       -1.027   0.955   0.530  0.00  0.00    +0.235 C 
ATOM      2  C   LIG    1       -0.275   1.631   1.661  0.00  0.00    +0.096 C 
ATOM      3  N   LIG    1       -2.396   0.743   0.815  0.00  0.00    -0.070 NA
ATOM      4  C   LIG    1       -2.977  -0.377   0.710  0.00  0.00    +0.420 C 
ATOM      5  N   LIG    1       -2.359  -1.581   0.296  0.00  0.00    -0.009 NA
ATOM      6  C   LIG    1       -1.082  -1.474   0.010  0.00  0.00    +0.383 C 
ATOM      7  N   LIG    1       -0.373  -0.256   0.105  0.00  0.00    -0.154 N 
ATOM      8  C   LIG    1       -0.947   1.919  -0.646  0.00  0.00    +0.096 C 
ENDROOT
BRANCH   7   9
ATOM      9  C   LIG    1        1.023  -0.276  -0.238  0.00  0.00    +0.098 A 
ATOM     10  C   LIG    1        1.986  -0.534   0.717  0.00  0.00    +0.042 A 
ATOM     11  C   LIG    1        3.341  -0.561   0.420  0.00  0.00    +0.023 A 
ATOM     12  C   LIG    1        3.752  -0.323  -0.877  0.00  0.00    +0.041 A 
ATOM     13 CL   LIG    1        5.453  -0.342  -1.329  0.00  0.00    -0.084 Cl
ATOM     14  C   LIG    1        2.790  -0.067  -1.827  0.00  0.00    +0.023 A 
ATOM     15  C   LIG    1        1.430  -0.039  -1.532  0.00  0.00    +0.042 A 
ENDBRANCH   7   9
BRANCH   4  16
ATOM     16  N   LIG    1       -4.382  -0.482   1.027  0.00  0.00    -0.247 N 
ATOM     17  H   LIG    1       -4.760  -0.041   1.884  0.00  0.00    +0.241 HD
ATOM     18  H   LIG    1       -5.045  -0.994   0.417  0.00  0.00    +0.241 HD
ENDBRANCH   4  16
BRANCH   6  19
ATOM     19  N   LIG    1       -0.376  -2.629  -0.415  0.00  0.00    -0.251 N 
ATOM     20  H   LIG    1       -0.236  -3.399   0.256  0.00  0.00    +0.241 HD
ATOM     21  H   LIG    1       -0.005  -2.706  -1.373  0.00  0.00    +0.241 HD
ENDBRANCH   6  19
TORSDOF 3
