REMARK  Name = molecules/QNAYBMKLOCPYGJ-REOHCLBHSA-N.pdb
REMARK                            x       y       z     vdW  Elec       q    Type
REMARK                         _______ _______ _______ _____ _____    ______ ____
ROOT
ATOM      1  CB  ALA A  1       -1.171  -0.983   0.359  0.00  0.00    +0.035 C 
ATOM      2  CA  ALA A  1       -0.225   0.208   0.459  0.00  0.00    +0.158 C 
ENDROOT
BRANCH   2   3
ATOM      3  N   ALA A  1       -0.634   1.296  -0.373  0.00  0.00    -0.319 NA
ATOM      4  H1  ALA A  1       -1.257   1.983   0.106  0.00  0.00    +0.119 HD
ATOM      5  H2  ALA A  1        0.193   1.803  -0.773  0.00  0.00    +0.119 HD
ENDBRANCH   2   3
BRANCH   2   6
ATOM      6  C   ALA A  1        1.108  -0.287  -0.001  0.00  0.00    +0.321 C 
ATOM      7  OXT ALA A  1        1.681  -1.256   0.589  0.00  0.00    -0.249 OA
BRANCH   6   8
ATOM      8  O   ALA A  1        1.752   0.297  -1.080  0.00  0.00    -0.480 OA
ATOM      9  H   ALA A  1        2.764   0.267  -1.120  0.00  0.00    +0.295 HD
ENDBRANCH   6   8
ENDBRANCH   2   6
TORSDOF 3
