REMARK  Name = molecules/QNMGHBMGNRQPNL-UHFFFAOYSA-N.pdb
REMARK                            x       y       z     vdW  Elec       q    Type
REMARK                         _______ _______ _______ _____ _____    ______ ____
ROOT
ATOM      1  C   LIG    1        0.111   0.696   0.467  0.00  0.00    +0.377 C 
ENDROOT
BRANCH   1   2
ATOM      2  O   LIG    1        0.554   0.497   1.786  0.00  0.00    -0.452 OA
BRANCH   2   3
ATOM      3  C   LIG    1        1.527  -0.384   2.194  0.00  0.00    +0.125 A 
ATOM      4  C   LIG    1        1.774  -0.389   3.574  0.00  0.00    +0.046 A 
ATOM      5  C   LIG    1        2.723  -1.228   4.096  0.00  0.00    +0.004 A 
ATOM      6  C   LIG    1        3.440  -2.072   3.271  0.00  0.00    +0.000 A 
ATOM      7  C   LIG    1        3.198  -2.067   1.919  0.00  0.00    +0.004 A 
ATOM      8  C   LIG    1        2.241  -1.222   1.389  0.00  0.00    +0.046 A 
ENDBRANCH   2   3
ENDBRANCH   1   2
BRANCH   1   9
ATOM      9  O   LIG    1       -1.264   0.373   0.462  0.00  0.00    -0.452 OA
BRANCH   9  10
ATOM     10  C   LIG    1       -1.892  -0.600  -0.244  0.00  0.00    +0.125 A 
ATOM     11  C   LIG    1       -3.268  -0.724  -0.075  0.00  0.00    +0.046 A 
ATOM     12  C   LIG    1       -3.963  -1.689  -0.761  0.00  0.00    +0.004 A 
ATOM     13  C   LIG    1       -3.344  -2.558  -1.627  0.00  0.00    +0.000 A 
ATOM     14  C   LIG    1       -1.985  -2.446  -1.803  0.00  0.00    +0.004 A 
ATOM     15  C   LIG    1       -1.296  -1.471  -1.107  0.00  0.00    +0.046 A 
ENDBRANCH   9  10
ENDBRANCH   1   9
BRANCH   1  16
ATOM     16  C   LIG    1        0.298   2.151   0.055  0.00  0.00    +0.173 C 
BRANCH  16  17
ATOM     17  N   LIG    1       -0.124   2.429  -1.258  0.00  0.00    -0.302 NA
ATOM     18  C   LIG    1       -0.726   3.700  -1.476  0.00  0.00    +0.104 C 
ATOM     19  C   LIG    1        0.612   1.868  -2.317  0.00  0.00    +0.104 C 
ENDBRANCH  16  17
ENDBRANCH   1  16
TORSDOF 6
