REMARK  Name = molecules/QNPHCSSJLHAKSA-UHFFFAOYSA-N.pdb
REMARK                            x       y       z     vdW  Elec       q    Type
REMARK                         _______ _______ _______ _____ _____    ______ ____
ROOT
ATOM      1  C   LIG    1       -1.168   0.036   0.632  0.00  0.00    +0.217 C 
ENDROOT
BRANCH   1   2
ATOM      2  C   LIG    1       -1.976  -1.246   0.478  0.00  0.00    -0.001 A 
ATOM      3  C   LIG    1       -2.835  -1.644   1.471  0.00  0.00    +0.007 A 
ATOM      4  C   LIG    1       -3.588  -2.801   1.367  0.00  0.00    +0.000 A 
ATOM      5  C   LIG    1       -3.449  -3.561   0.217  0.00  0.00    +0.000 A 
ATOM      6  C   LIG    1       -2.590  -3.179  -0.795  0.00  0.00    +0.000 A 
ATOM      7  C   LIG    1       -1.841  -2.005  -0.664  0.00  0.00    +0.007 A 
ENDBRANCH   1   2
BRANCH   1   8
ATOM      8  C   LIG    1       -1.649   0.997  -0.383  0.00  0.00    -0.001 A 
ATOM      9  C   LIG    1       -2.979   1.357  -0.303  0.00  0.00    +0.007 A 
ATOM     10  C   LIG    1       -3.511   2.238  -1.220  0.00  0.00    +0.000 A 
ATOM     11  C   LIG    1       -2.717   2.763  -2.219  0.00  0.00    +0.000 A 
ATOM     12  C   LIG    1       -1.393   2.381  -2.267  0.00  0.00    +0.000 A 
ATOM     13  C   LIG    1       -0.819   1.495  -1.361  0.00  0.00    +0.007 A 
ENDBRANCH   1   8
BRANCH   1  14
ATOM     14  C   LIG    1        0.225  -0.364   0.521  0.00  0.00    +0.349 C 
ATOM     15  O   LIG    1        0.973  -0.267   1.517  0.00  0.00    -0.247 OA
BRANCH  14  16
ATOM     16  O   LIG    1        0.827  -0.864  -0.625  0.00  0.00    -0.461 OA
BRANCH  16  17
ATOM     17  C   LIG    1        2.184  -1.241  -0.691  0.00  0.00    +0.247 C 
BRANCH  17  18
ATOM     18  C   LIG    1        3.125  -0.116  -0.402  0.00  0.00    +0.125 C 
BRANCH  18  19
ATOM     19  N   LIG    1        4.487  -0.635  -0.502  0.00  0.00    -0.305 NA
ATOM     20  C   LIG    1        4.753  -1.578   0.584  0.00  0.00    +0.104 C 
ATOM     21  C   LIG    1        5.426   0.474  -0.383  0.00  0.00    +0.104 C 
ENDBRANCH  18  19
ENDBRANCH  17  18
ENDBRANCH  16  17
ENDBRANCH  14  16
ENDBRANCH   1  14
BRANCH   1  22
ATOM     22  O   LIG    1       -1.454   0.519   1.874  0.00  0.00    -0.341 OA
BRANCH  22  23
ATOM     23  C   LIG    1       -0.832   1.593   2.375  0.00  0.00    +0.250 C 
BRANCH  23  24
ATOM     24  C   LIG    1       -1.008   2.813   1.615  0.00  0.00    -0.077 C 
ATOM     25  C   LIG    1       -1.145   3.853   1.002  0.00  0.00    +0.006 C 
ENDBRANCH  23  24
ENDBRANCH  22  23
ENDBRANCH   1  22
TORSDOF 10
