REMARK  Name = molecules/QNQZBKQEIFTHFZ-SFHVURJKSA-N.pdb
REMARK                            x       y       z     vdW  Elec       q    Type
REMARK                         _______ _______ _______ _____ _____    ______ ____
ROOT
ATOM      1  C   LIG    1        1.021   0.725  -0.270  0.00  0.00    +0.160 C 
ENDROOT
BRANCH   1   2
ATOM      2  N   LIG    1        2.407   0.298  -0.105  0.00  0.00    -0.300 N 
ATOM      3  C   LIG    1        3.314   1.229   0.453  0.00  0.00    +0.245 C 
ATOM      4  O   LIG    1        2.910   2.388   0.787  0.00  0.00    -0.270 OA
ATOM      5  H   LIG    1        2.737  -0.649  -0.379  0.00  0.00    +0.150 HD
BRANCH   3   6
ATOM      6  C   LIG    1        4.734   0.923   0.672  0.00  0.00    +0.038 A 
ATOM      7  C   LIG    1        5.609   1.895   1.113  0.00  0.00    +0.034 A 
ATOM      8  C   LIG    1        6.939   1.663   1.337  0.00  0.00    +0.060 A 
ATOM      9 CL   LIG    1        8.004   2.925   1.893  0.00  0.00    -0.082 Cl
ATOM     10  C   LIG    1        7.414   0.390   1.105  0.00  0.00    +0.059 A 
ATOM     11 CL   LIG    1        9.126   0.052   1.384  0.00  0.00    -0.082 Cl
ATOM     12  C   LIG    1        6.595  -0.630   0.664  0.00  0.00    +0.022 A 
ATOM     13  C   LIG    1        5.264  -0.325   0.459  0.00  0.00    +0.014 A 
ENDBRANCH   3   6
ENDBRANCH   1   2
BRANCH   1  14
ATOM     14  C   LIG    1        0.139  -0.206   0.445  0.00  0.00    +0.236 C 
ATOM     15  O   LIG    1        0.698  -1.270   0.898  0.00  0.00    -0.274 OA
ATOM     16  N   LIG    1       -1.236  -0.062   0.690  0.00  0.00    -0.300 N 
BRANCH  16  17
ATOM     17  C   LIG    1       -1.928  -1.155   1.391  0.00  0.00    +0.108 C 
BRANCH  17  18
ATOM     18  C   LIG    1       -2.427  -2.095   0.320  0.00  0.00    +0.019 C 
BRANCH  18  19
ATOM     19  C   LIG    1       -3.162  -3.267   0.950  0.00  0.00    +0.001 C 
BRANCH  19  20
ATOM     20  C   LIG    1       -3.630  -4.159  -0.181  0.00  0.00    -0.003 C 
ATOM     21  C   LIG    1       -4.363  -5.332   0.412  0.00  0.00    +0.004 C 
ENDBRANCH  19  20
ENDBRANCH  18  19
ENDBRANCH  17  18
ENDBRANCH  16  17
BRANCH  16  22
ATOM     22  C   LIG    1       -2.062   1.062   0.352  0.00  0.00    +0.110 C 
BRANCH  22  23
ATOM     23  C   LIG    1       -2.094   2.091   1.474  0.00  0.00    +0.047 C 
BRANCH  23  24
ATOM     24  C   LIG    1       -2.977   3.226   1.012  0.00  0.00    +0.161 C 
BRANCH  24  25
ATOM     25  O   LIG    1       -3.076   4.231   1.966  0.00  0.00    -0.383 OA
ATOM     26  C   LIG    1       -3.900   5.226   1.446  0.00  0.00    +0.193 C 
ENDBRANCH  24  25
ENDBRANCH  23  24
ENDBRANCH  22  23
ENDBRANCH  16  22
ENDBRANCH   1  14
BRANCH   1  27
ATOM     27  C   LIG    1        0.808   0.751  -1.766  0.00  0.00    +0.043 C 
BRANCH  27  28
ATOM     28  C   LIG    1        1.035  -0.573  -2.414  0.00  0.00    +0.123 C 
BRANCH  28  29
ATOM     29  C   LIG    1        0.795  -0.431  -3.869  0.00  0.00    +0.305 C 
ATOM     30  O   LIG    1        0.447   0.658  -4.365  0.00  0.00    -0.251 OA
BRANCH  29  31
ATOM     31  O   LIG    1        0.961  -1.524  -4.689  0.00  0.00    -0.481 OA
ATOM     32  H   LIG    1        1.771  -1.665  -5.286  0.00  0.00    +0.295 HD
ENDBRANCH  29  31
ENDBRANCH  28  29
ENDBRANCH  27  28
ENDBRANCH   1  27
TORSDOF 15
