REMARK  Name = molecules/QNXUUBBKHBYRFW-QWAPGEGQSA-N.pdb
REMARK                            x       y       z     vdW  Elec       q    Type
REMARK                         _______ _______ _______ _____ _____    ______ ____
ROOT
ATOM      1  C   LIG    1       -3.153  -0.445   0.084  0.00  0.00    +0.165 C 
ATOM      2  O   LIG    1       -3.521  -1.264   1.147  0.00  0.00    -0.332 OA
ATOM      3  C   LIG    1       -3.663  -2.540   0.661  0.00  0.00    +0.166 C 
ATOM      4  C   LIG    1       -2.909  -3.484   1.613  0.00  0.00    +0.074 C 
ATOM      5  C   LIG    1       -5.147  -2.930   0.667  0.00  0.00    +0.074 C 
ATOM      6  O   LIG    1       -3.143  -2.602  -0.612  0.00  0.00    -0.343 OA
ATOM      7  C   LIG    1       -1.765   0.078   0.197  0.00  0.00    +0.012 C 
ATOM      8  C   LIG    1       -1.153  -0.083   1.575  0.00  0.00    +0.044 C 
ATOM      9  C   LIG    1        0.312   0.160   1.579  0.00  0.00    +0.153 C 
ATOM     10  C   LIG    1        1.104  -0.351   0.445  0.00  0.00    +0.150 C 
ATOM     11  F   LIG    1        1.281  -1.734   0.689  0.00  0.00    -0.238 F 
ATOM     12  C   LIG    1        2.488   0.210   0.350  0.00  0.00    +0.030 C 
ATOM     13  C   LIG    1        3.447  -0.517   1.288  0.00  0.00    +0.022 C 
ATOM     14  C   LIG    1        4.864  -0.118   1.166  0.00  0.00    +0.075 C 
ATOM     15  C   LIG    1        5.304   0.438  -0.105  0.00  0.00    +0.098 C 
ATOM     16  C   LIG    1        4.454   0.493  -1.148  0.00  0.00    +0.045 C 
ATOM     17  C   LIG    1        2.585   1.678   0.710  0.00  0.00    +0.019 C 
ATOM     18  C   LIG    1        3.087  -0.006  -1.006  0.00  0.00    -0.029 C 
ATOM     19  C   LIG    1        2.501  -0.585  -2.017  0.00  0.00    -0.004 C 
ATOM     20  C   LIG    1        1.097  -1.124  -1.936  0.00  0.00    +0.045 C 
ATOM     21  C   LIG    1        0.375  -0.325  -0.877  0.00  0.00    +0.038 C 
ATOM     22  C   LIG    1       -1.685   1.479  -0.300  0.00  0.00    +0.015 C 
ATOM     23  C   LIG    1       -0.988  -0.906  -0.636  0.00  0.00    +0.007 C 
ATOM     24  C   LIG    1       -1.839  -1.031  -1.856  0.00  0.00    +0.039 C 
ATOM     25  C   LIG    1       -3.185  -1.335  -1.169  0.00  0.00    +0.162 C 
ENDROOT
BRANCH   1  26
ATOM     26  C   LIG    1       -4.206   0.585  -0.145  0.00  0.00    +0.205 C 
ATOM     27  O   LIG    1       -4.113   1.375  -1.096  0.00  0.00    -0.291 OA
BRANCH  26  28
ATOM     28  C   LIG    1       -5.401   0.739   0.710  0.00  0.00    +0.309 C 
BRANCH  28  29
ATOM     29  O   LIG    1       -6.248   1.749   0.236  0.00  0.00    -0.457 OA
BRANCH  29  30
ATOM     30  C   LIG    1       -5.886   3.068   0.120  0.00  0.00    +0.304 C 
ATOM     31  O   LIG    1       -4.744   3.476   0.439  0.00  0.00    -0.251 OA
ATOM     32  C   LIG    1       -6.838   4.113  -0.400  0.00  0.00    +0.136 C 
ENDBRANCH  29  30
ENDBRANCH  28  29
ENDBRANCH  26  28
ENDBRANCH   1  26
BRANCH   9  33
ATOM     33  O   LIG    1        0.461   1.528   1.858  0.00  0.00    -0.389 OA
ATOM     34  H   LIG    1       -0.001   1.676   2.726  0.00  0.00    +0.210 HD
ENDBRANCH   9  33
BRANCH  19  35
ATOM     35  C   LIG    1        3.186  -0.796  -3.308  0.00  0.00    +0.254 C 
ATOM     36  O   LIG    1        4.348  -0.470  -3.533  0.00  0.00    -0.296 OA
ENDBRANCH  19  35
BRANCH  15  37
ATOM     37  O   LIG    1        6.575   0.917  -0.287  0.00  0.00    -0.495 OA
BRANCH  37  38
ATOM     38  C   LIG    1        7.753   0.210   0.029  0.00  0.00    +0.244 C 
BRANCH  38  39
ATOM     39  C   LIG    1        8.958   1.062  -0.312  0.00  0.00    +0.149 C 
ATOM     40 CL   LIG    1        9.010   1.481  -2.024  0.00  0.00    -0.122 Cl
ENDBRANCH  38  39
ENDBRANCH  37  38
ENDBRANCH  15  37
TORSDOF 9
