REMARK  Name = molecules/QOIGKGMMAGJZNZ-UHFFFAOYSA-N.pdb
REMARK                            x       y       z     vdW  Elec       q    Type
REMARK                         _______ _______ _______ _____ _____    ______ ____
ROOT
ATOM      1  C   LIG    1        1.051  -1.890   0.411  0.00  0.00    +0.084 C 
ENDROOT
BRANCH   1   2
ATOM      2  N   LIG    1        1.602  -0.516   0.343  0.00  0.00    -0.299 NA
ATOM      3  C   LIG    1        2.267  -0.240   1.571  0.00  0.00    +0.103 C 
ATOM      4  C   LIG    1        3.543   0.501   1.550  0.00  0.00    +0.123 C 
ATOM      5  N   LIG    1        4.053   0.751   0.224  0.00  0.00    -0.297 N 
ATOM      6  C   LIG    1        3.122   0.873  -0.879  0.00  0.00    +0.123 C 
ATOM      7  C   LIG    1        2.349  -0.431  -0.858  0.00  0.00    +0.103 C 
BRANCH   5   8
ATOM      8  C   LIG    1        5.431   0.862  -0.001  0.00  0.00    +0.218 A 
ATOM      9  N   LIG    1        6.274   0.772   1.040  0.00  0.00    -0.223 NA
ATOM     10  C   LIG    1        7.591   0.855   0.959  0.00  0.00    +0.116 A 
ATOM     11  C   LIG    1        8.145   1.047  -0.290  0.00  0.00    +0.039 A 
ATOM     12  C   LIG    1        7.279   1.140  -1.368  0.00  0.00    +0.116 A 
ATOM     13  N   LIG    1        5.944   1.052  -1.250  0.00  0.00    -0.223 NA
ENDBRANCH   5   8
ENDBRANCH   1   2
BRANCH   1  14
ATOM     14  C   LIG    1        0.243  -2.211  -0.799  0.00  0.00    +0.017 C 
BRANCH  14  15
ATOM     15  C   LIG    1       -0.959  -1.314  -1.007  0.00  0.00    +0.021 C 
BRANCH  15  16
ATOM     16  C   LIG    1       -1.846  -1.488   0.201  0.00  0.00    +0.116 C 
BRANCH  16  17
ATOM     17  N   LIG    1       -3.049  -0.721   0.178  0.00  0.00    -0.242 N 
ATOM     18  C   LIG    1       -3.099   0.583   0.715  0.00  0.00    +0.222 C 
ATOM     19  C   LIG    1       -4.399   1.268   1.019  0.00  0.00    +0.103 C 
ATOM     20  C   LIG    1       -5.449   0.788   0.065  0.00  0.00    -0.018 C 
ATOM     21  C   LIG    1       -6.821   1.309   0.450  0.00  0.00    +0.012 C 
ATOM     22  C   LIG    1       -5.552  -0.722   0.124  0.00  0.00    +0.103 C 
ATOM     23  C   LIG    1       -5.129   1.278  -1.319  0.00  0.00    +0.012 C 
ATOM     24  O   LIG    1       -2.055   1.256   0.973  0.00  0.00    -0.275 OA
ATOM     25  C   LIG    1       -4.238  -1.252  -0.384  0.00  0.00    +0.222 C 
ATOM     26  O   LIG    1       -4.260  -2.123  -1.261  0.00  0.00    -0.275 OA
ENDBRANCH  16  17
ENDBRANCH  15  16
ENDBRANCH  14  15
ENDBRANCH   1  14
TORSDOF 6
