REMARK  Name = molecules/QOYHHIBFXOOADH-UHFFFAOYSA-N.pdb
REMARK                            x       y       z     vdW  Elec       q    Type
REMARK                         _______ _______ _______ _____ _____    ______ ____
ROOT
ATOM      1  O   LIG    1        2.006  -2.030  -0.975  0.00  0.00    -0.273 OA
ATOM      2  C   LIG    1        2.878  -1.161  -1.090  0.00  0.00    +0.238 C 
ATOM      3  C   LIG    1        3.240  -0.013  -0.170  0.00  0.00    +0.115 C 
ATOM      4  C   LIG    1        2.566  -0.169   1.129  0.00  0.00    +0.051 C 
ATOM      5  C   LIG    1        1.063  -0.053   0.950  0.00  0.00    +0.087 C 
ATOM      6  N   LIG    1        0.635   0.991   0.093  0.00  0.00    -0.302 NA
ATOM      7  C   LIG    1        1.624   1.883  -0.395  0.00  0.00    +0.087 C 
ATOM      8  N   LIG    1        4.663  -0.102  -0.223  0.00  0.00    -0.300 N 
ATOM      9  C   LIG    1        4.906  -0.210  -1.700  0.00  0.00    +0.214 C 
ATOM     10  C   LIG    1        2.850   1.242  -0.939  0.00  0.00    +0.051 C 
ATOM     11  N   LIG    1        3.795  -1.024  -2.167  0.00  0.00    -0.298 N 
ATOM     12  H   LIG    1        3.753  -1.401  -3.127  0.00  0.00    +0.150 HD
ENDROOT
BRANCH   8  13
ATOM     13  C   LIG    1        5.735  -0.116   0.658  0.00  0.00    +0.032 A 
ATOM     14  C   LIG    1        5.624  -0.463   1.971  0.00  0.00    +0.023 A 
ATOM     15  C   LIG    1        6.739  -0.480   2.831  0.00  0.00    +0.002 A 
ATOM     16  C   LIG    1        7.976  -0.150   2.376  0.00  0.00    +0.000 A 
ATOM     17  C   LIG    1        8.118   0.203   1.059  0.00  0.00    +0.002 A 
ATOM     18  C   LIG    1        7.020   0.217   0.226  0.00  0.00    +0.023 A 
ENDBRANCH   8  13
BRANCH   6  19
ATOM     19  C   LIG    1       -0.354   0.653  -0.873  0.00  0.00    +0.084 C 
BRANCH  19  20
ATOM     20  C   LIG    1       -1.716   0.353  -0.176  0.00  0.00    +0.016 C 
BRANCH  20  21
ATOM     21  C   LIG    1       -2.646   0.013  -1.267  0.00  0.00    +0.014 C 
BRANCH  21  22
ATOM     22  C   LIG    1       -4.056  -0.312  -0.975  0.00  0.00    +0.049 C 
BRANCH  22  23
ATOM     23  C   LIG    1       -4.350  -1.428  -0.092  0.00  0.00    -0.040 A 
ATOM     24  C   LIG    1       -4.022  -1.430   1.239  0.00  0.00    +0.007 A 
ATOM     25  C   LIG    1       -4.327  -2.512   2.074  0.00  0.00    +0.038 A 
ATOM     26  C   LIG    1       -4.965  -3.613   1.600  0.00  0.00    +0.123 A 
ATOM     27  F   LIG    1       -5.275  -4.682   2.390  0.00  0.00    -0.205 F 
ATOM     28  C   LIG    1       -5.307  -3.641   0.268  0.00  0.00    +0.038 A 
ATOM     29  C   LIG    1       -5.006  -2.579  -0.545  0.00  0.00    +0.007 A 
ENDBRANCH  22  23
BRANCH  22  30
ATOM     30  C   LIG    1       -4.904   0.890  -0.814  0.00  0.00    -0.040 A 
ATOM     31  C   LIG    1       -4.813   1.730   0.273  0.00  0.00    +0.007 A 
ATOM     32  C   LIG    1       -5.601   2.860   0.453  0.00  0.00    +0.038 A 
ATOM     33  C   LIG    1       -6.534   3.179  -0.496  0.00  0.00    +0.123 A 
ATOM     34  F   LIG    1       -7.311   4.292  -0.322  0.00  0.00    -0.205 F 
ATOM     35  C   LIG    1       -6.673   2.379  -1.604  0.00  0.00    +0.038 A 
ATOM     36  C   LIG    1       -5.876   1.270  -1.749  0.00  0.00    +0.007 A 
ENDBRANCH  22  30
ENDBRANCH  21  22
ENDBRANCH  20  21
ENDBRANCH  19  20
ENDBRANCH   6  19
TORSDOF 7
