REMARK  Name = molecules/QPCDCPDFJACHGM-UHFFFAOYSA-N.pdb
REMARK                            x       y       z     vdW  Elec       q    Type
REMARK                         _______ _______ _______ _____ _____    ______ ____
ROOT
ATOM      1  N   LIG    1        0.116   0.728  -0.492  0.00  0.00    -0.290 NA
ENDROOT
BRANCH   1   2
ATOM      2  C   LIG    1        0.191   2.114  -0.314  0.00  0.00    +0.205 C 
BRANCH   2   3
ATOM      3  C   LIG    1       -0.540   2.932  -1.285  0.00  0.00    +0.319 C 
ATOM      4  O   LIG    1       -0.844   2.495  -2.406  0.00  0.00    -0.250 OA
BRANCH   3   5
ATOM      5  O   LIG    1       -0.918   4.228  -0.983  0.00  0.00    -0.480 OA
ATOM      6  H   LIG    1       -0.470   4.779  -0.271  0.00  0.00    +0.295 HD
ENDBRANCH   3   5
ENDBRANCH   2   3
ENDBRANCH   1   2
BRANCH   1   7
ATOM      7  C   LIG    1       -1.131   0.146  -0.109  0.00  0.00    +0.100 C 
BRANCH   7   8
ATOM      8  C   LIG    1       -2.371   0.710  -0.670  0.00  0.00    +0.101 C 
BRANCH   8   9
ATOM      9  N   LIG    1       -3.566   0.019  -0.141  0.00  0.00    -0.281 NA
BRANCH   9  10
ATOM     10  C   LIG    1       -3.631  -1.294  -0.620  0.00  0.00    +0.206 C 
BRANCH  10  11
ATOM     11  C   LIG    1       -4.874  -2.027  -0.702  0.00  0.00    +0.319 C 
ATOM     12  O   LIG    1       -6.038  -1.590  -0.885  0.00  0.00    -0.250 OA
BRANCH  11  13
ATOM     13  O   LIG    1       -4.827  -3.439  -0.561  0.00  0.00    -0.480 OA
ATOM     14  H   LIG    1       -3.954  -3.906  -0.633  0.00  0.00    +0.295 HD
ENDBRANCH  11  13
ENDBRANCH  10  11
ENDBRANCH   9  10
BRANCH   9  15
ATOM     15  C   LIG    1       -4.688   0.825   0.029  0.00  0.00    +0.206 C 
BRANCH  15  16
ATOM     16  C   LIG    1       -5.654   0.243   0.987  0.00  0.00    +0.319 C 
ATOM     17  O   LIG    1       -6.827   0.660   1.073  0.00  0.00    -0.250 OA
BRANCH  16  18
ATOM     18  O   LIG    1       -5.279  -0.813   1.850  0.00  0.00    -0.480 OA
ATOM     19  H   LIG    1       -5.896  -1.603   2.007  0.00  0.00    +0.295 HD
ENDBRANCH  16  18
ENDBRANCH  15  16
ENDBRANCH   9  15
ENDBRANCH   8   9
ENDBRANCH   7   8
ENDBRANCH   1   7
BRANCH   1  20
ATOM     20  C   LIG    1        1.157  -0.071   0.095  0.00  0.00    +0.100 C 
BRANCH  20  21
ATOM     21  C   LIG    1        2.545   0.371  -0.196  0.00  0.00    +0.101 C 
BRANCH  21  22
ATOM     22  N   LIG    1        3.572  -0.480   0.396  0.00  0.00    -0.281 NA
BRANCH  22  23
ATOM     23  C   LIG    1        3.639  -1.764  -0.203  0.00  0.00    +0.206 C 
BRANCH  23  24
ATOM     24  C   LIG    1        4.603  -2.628   0.499  0.00  0.00    +0.319 C 
ATOM     25  O   LIG    1        4.987  -3.743   0.029  0.00  0.00    -0.250 OA
BRANCH  24  26
ATOM     26  O   LIG    1        5.154  -2.282   1.723  0.00  0.00    -0.480 OA
ATOM     27  H   LIG    1        5.074  -2.829   2.550  0.00  0.00    +0.295 HD
ENDBRANCH  24  26
ENDBRANCH  23  24
ENDBRANCH  22  23
BRANCH  22  28
ATOM     28  C   LIG    1        4.798   0.248   0.505  0.00  0.00    +0.206 C 
BRANCH  28  29
ATOM     29  C   LIG    1        5.437   0.562  -0.802  0.00  0.00    +0.319 C 
ATOM     30  O   LIG    1        4.883   0.206  -1.870  0.00  0.00    -0.250 OA
BRANCH  29  31
ATOM     31  O   LIG    1        6.651   1.252  -0.833  0.00  0.00    -0.480 OA
ATOM     32  H   LIG    1        6.733   2.188  -0.464  0.00  0.00    +0.295 HD
ENDBRANCH  29  31
ENDBRANCH  28  29
ENDBRANCH  22  28
ENDBRANCH  21  22
ENDBRANCH  20  21
ENDBRANCH   1  20
TORSDOF 21
