REMARK  Name = molecules/QPFYXYFORQJZEC-FOCLMDBBSA-N.pdb
REMARK                            x       y       z     vdW  Elec       q    Type
REMARK                         _______ _______ _______ _____ _____    ______ ____
ROOT
ATOM      1  C   LIG    1       -1.399   0.364   0.069  0.00  0.00    +0.126 A 
ATOM      2  C   LIG    1       -2.106  -0.694   0.592  0.00  0.00    +0.146 A 
ATOM      3  N   LIG    1       -3.448  -0.826   0.378  0.00  0.00    -0.216 NA
ATOM      4  C   LIG    1       -4.136   0.060  -0.346  0.00  0.00    +0.118 A 
ATOM      5  C   LIG    1       -3.432   1.132  -0.880  0.00  0.00    +0.045 A 
ATOM      6  C   LIG    1       -2.076   1.296  -0.682  0.00  0.00    +0.036 A 
ENDROOT
BRANCH   2   7
ATOM      7  N   LIG    1       -1.495  -1.694   1.373  0.00  0.00    -0.341 N 
ATOM      8  H   LIG    1       -1.813  -1.925   2.350  0.00  0.00    +0.144 HD
ATOM      9  H   LIG    1       -0.689  -2.263   1.021  0.00  0.00    +0.144 HD
ENDBRANCH   2   7
BRANCH   4  10
ATOM     10  N   LIG    1       -5.539  -0.075  -0.573  0.00  0.00    -0.343 N 
ATOM     11  H   LIG    1       -6.124  -0.658   0.061  0.00  0.00    +0.144 HD
ATOM     12  H   LIG    1       -5.978   0.409  -1.373  0.00  0.00    +0.144 HD
ENDBRANCH   4  10
BRANCH   1  13
ATOM     13  N   LIG    1       -0.012   0.436   0.333  0.00  0.00    -0.146 NA
ATOM     14  N   LIG    1        0.886  -0.111  -0.345  0.00  0.00    -0.149 NA
BRANCH  14  15
ATOM     15  C   LIG    1        2.272  -0.021  -0.056  0.00  0.00    +0.086 A 
ATOM     16  C   LIG    1        2.809   0.410   1.133  0.00  0.00    +0.029 A 
ATOM     17  C   LIG    1        4.164   0.477   1.359  0.00  0.00    +0.002 A 
ATOM     18  C   LIG    1        5.040   0.096   0.352  0.00  0.00    +0.000 A 
ATOM     19  C   LIG    1        4.536  -0.336  -0.838  0.00  0.00    +0.002 A 
ATOM     20  C   LIG    1        3.162  -0.395  -1.045  0.00  0.00    +0.029 A 
ENDBRANCH  14  15
ENDBRANCH   1  13
TORSDOF 4
