REMARK  Name = molecules/QPGGEKPRGVJKQB-UHFFFAOYSA-N.pdb
REMARK                            x       y       z     vdW  Elec       q    Type
REMARK                         _______ _______ _______ _____ _____    ______ ____
ROOT
ATOM      1  N   LIG    1        0.554  -0.558  -0.966  0.00  0.00    -0.305 N 
ATOM      2  C   LIG    1       -0.184  -1.578  -0.276  0.00  0.00    +0.068 A 
ATOM      3  C   LIG    1       -1.317  -1.467   0.536  0.00  0.00    +0.066 A 
ATOM      4  C   LIG    1       -1.865  -2.595   1.096  0.00  0.00    +0.028 A 
ATOM      5  C   LIG    1       -1.293  -3.824   0.855  0.00  0.00    +0.002 A 
ATOM      6  C   LIG    1       -0.172  -3.963   0.057  0.00  0.00    +0.002 A 
ATOM      7  N   LIG    1       -2.048  -0.293   0.923  0.00  0.00    -0.342 N 
ATOM      8  C   LIG    1       -2.796  -0.378   2.149  0.00  0.00    +0.149 C 
ATOM      9  C   LIG    1       -2.114   0.952   0.236  0.00  0.00    +0.054 A 
ATOM     10  C   LIG    1       -3.241   1.660   0.578  0.00  0.00    +0.026 A 
ATOM     11  C   LIG    1       -3.476   2.894   0.017  0.00  0.00    +0.002 A 
ATOM     12  C   LIG    1       -2.537   3.383  -0.897  0.00  0.00    +0.001 A 
ATOM     13  C   LIG    1       -1.409   2.677  -1.242  0.00  0.00    +0.015 A 
ATOM     14  C   LIG    1       -1.175   1.437  -0.676  0.00  0.00    +0.063 A 
ATOM     15  C   LIG    1        0.383  -2.810  -0.513  0.00  0.00    +0.028 A 
ATOM     16  C   LIG    1        0.035   0.784  -1.124  0.00  0.00    +0.261 A 
ATOM     17  O   LIG    1        0.780   1.548  -1.787  0.00  0.00    -0.267 OA
ENDROOT
BRANCH   1  18
ATOM     18  C   LIG    1        1.853  -0.838  -1.497  0.00  0.00    +0.141 C 
BRANCH  18  19
ATOM     19  C   LIG    1        3.003  -0.675  -0.558  0.00  0.00    +0.105 C 
BRANCH  19  20
ATOM     20  N   LIG    1        3.219   0.583   0.026  0.00  0.00    -0.307 NA
ATOM     21  C   LIG    1        2.317   1.080   0.983  0.00  0.00    +0.104 C 
ATOM     22  C   LIG    1        4.196   1.444  -0.507  0.00  0.00    +0.104 C 
ENDBRANCH  19  20
ENDBRANCH  18  19
ENDBRANCH   1  18
TORSDOF 3
