REMARK  Name = molecules/QQJLHRRUATVHED-UHFFFAOYSA-N.pdb
REMARK                            x       y       z     vdW  Elec       q    Type
REMARK                         _______ _______ _______ _____ _____    ______ ____
ROOT
ATOM      1  C   LIG    1        0.153  -0.162   0.131  0.00  0.00    +0.033 A 
ATOM      2  C   LIG    1       -1.203   0.080   0.162  0.00  0.00    -0.023 A 
ATOM      3  C   LIG    1       -1.753   1.292   0.814  0.00  0.00    +0.037 C 
ATOM      4  C   LIG    1       -3.044   1.645   0.058  0.00  0.00    +0.005 C 
ATOM      5  C   LIG    1       -4.013   0.515   0.337  0.00  0.00    +0.005 C 
ATOM      6  C   LIG    1       -3.540  -0.683  -0.461  0.00  0.00    +0.035 C 
ATOM      7  C   LIG    1       -2.062  -0.813  -0.423  0.00  0.00    -0.042 A 
ATOM      8  C   LIG    1       -1.534  -1.930  -1.027  0.00  0.00    +0.004 A 
ATOM      9  C   LIG    1       -0.178  -2.179  -1.062  0.00  0.00    +0.002 A 
ATOM     10  C   LIG    1        0.695  -1.296  -0.482  0.00  0.00    +0.023 A 
ENDROOT
BRANCH   1  11
ATOM     11  N   LIG    1        1.072   0.746   0.739  0.00  0.00    -0.309 N 
ATOM     12  H   LIG    1        0.793   1.613   1.238  0.00  0.00    +0.149 HD
BRANCH  11  13
ATOM     13  C   LIG    1        2.477   0.497   0.697  0.00  0.00    +0.206 C 
ATOM     14  N   LIG    1        3.169  -0.065   1.613  0.00  0.00    -0.196 NA
ATOM     15  C   LIG    1        4.565  -0.152   1.231  0.00  0.00    +0.121 C 
ATOM     16  C   LIG    1        4.494   0.013  -0.267  0.00  0.00    +0.101 C 
ATOM     17  N   LIG    1        3.302   0.860  -0.409  0.00  0.00    -0.277 NA
ATOM     18  H   LIG    1        3.135   1.553  -1.160  0.00  0.00    +0.125 HD
ENDBRANCH  11  13
ENDBRANCH   1  11
TORSDOF 2
