REMARK  Name = molecules/QQLKULDARVNMAL-UHFFFAOYSA-N.pdb
REMARK                            x       y       z     vdW  Elec       q    Type
REMARK                         _______ _______ _______ _____ _____    ______ ____
ROOT
ATOM      1  C   LIG    1       -2.571  -0.193   0.919  0.00  0.00    +0.134 A 
ATOM      2  N   LIG    1       -3.497  -0.088   1.908  0.00  0.00    -0.220 NA
ATOM      3  C   LIG    1       -3.188  -0.060   3.207  0.00  0.00    +0.223 A 
ATOM      4  N   LIG    1       -1.908  -0.138   3.597  0.00  0.00    -0.235 NA
ATOM      5  C   LIG    1       -0.951  -0.243   2.668  0.00  0.00    +0.080 A 
ATOM      6  C   LIG    1        0.397  -0.324   3.052  0.00  0.00    +0.078 A 
ATOM      7  C   LIG    1        1.460  -0.433   2.166  0.00  0.00    +0.164 A 
ATOM      8  O   LIG    1        2.703  -0.494   2.737  0.00  0.00    -0.486 OA
ATOM      9  C   LIG    1        3.880   0.162   2.800  0.00  0.00    +0.257 C 
ATOM     10  C   LIG    1        4.347   0.820   1.579  0.00  0.00    +0.201 C 
ATOM     11  O   LIG    1        5.317   1.801   1.650  0.00  0.00    -0.374 OA
ATOM     12  C   LIG    1        5.527   2.178   0.314  0.00  0.00    +0.188 C 
ATOM     13  C   LIG    1        5.458   1.068  -0.682  0.00  0.00    +0.188 C 
ATOM     14  O   LIG    1        4.189   0.682  -1.058  0.00  0.00    -0.374 OA
ATOM     15  C   LIG    1        4.047  -0.585  -1.549  0.00  0.00    +0.201 C 
ATOM     16  C   LIG    1        3.062  -1.345  -0.643  0.00  0.00    +0.257 C 
ATOM     17  O   LIG    1        2.019  -0.575  -0.246  0.00  0.00    -0.486 OA
ATOM     18  C   LIG    1        1.153  -0.466   0.812  0.00  0.00    +0.163 A 
ATOM     19  C   LIG    1       -0.198  -0.383   0.442  0.00  0.00    +0.062 A 
ATOM     20  C   LIG    1       -1.253  -0.272   1.341  0.00  0.00    +0.044 A 
ENDROOT
BRANCH   1  21
ATOM     21  N   LIG    1       -2.923  -0.238  -0.429  0.00  0.00    -0.299 N 
ATOM     22  H   LIG    1       -2.190  -0.348  -1.155  0.00  0.00    +0.154 HD
BRANCH  21  24
ATOM     23  C   LIG    1       -4.506  -0.503  -2.260  0.00  0.00    +0.040 A 
ATOM     24  C   LIG    1       -4.247  -0.143  -0.922  0.00  0.00    +0.034 A 
ATOM     25  C   LIG    1       -5.329   0.291  -0.213  0.00  0.00    +0.023 A 
ATOM     26  C   LIG    1       -6.622   0.388  -0.740  0.00  0.00    +0.003 A 
ATOM     27  C   LIG    1       -6.813   0.025  -2.043  0.00  0.00    +0.017 A 
ATOM     28  C   LIG    1       -5.757  -0.421  -2.805  0.00  0.00    +0.026 A 
BRANCH  28  29
ATOM     29  C   LIG    1       -6.011  -0.792  -4.179  0.00  0.00    -0.070 C 
ATOM     30  C   LIG    1       -6.205  -1.091  -5.337  0.00  0.00    +0.009 C 
ENDBRANCH  28  29
ENDBRANCH  21  24
ENDBRANCH   1  21
TORSDOF 3
