REMARK  Name = molecules/QQOBRRFOVWGIMD-OJAKKHQRSA-N.pdb
REMARK                            x       y       z     vdW  Elec       q    Type
REMARK                         _______ _______ _______ _____ _____    ______ ____
ROOT
ATOM      1  C   LIG    1       -0.470   0.245   0.260  0.00  0.00    +0.270 C 
ATOM      2  C   LIG    1        0.762   1.072   0.408  0.00  0.00    +0.253 C 
ATOM      3  C   LIG    1        1.549   0.663  -0.846  0.00  0.00    +0.203 C 
ATOM      4  O   LIG    1        0.937  -0.459  -1.332  0.00  0.00    -0.341 OA
ATOM      5  C   LIG    1       -0.428  -0.143  -1.199  0.00  0.00    +0.286 C 
ENDROOT
BRANCH   5   6
ATOM      6  N   LIG    1       -1.279  -1.260  -1.501  0.00  0.00    -0.182 N 
ATOM      7  N   LIG    1       -1.589  -2.152  -0.586  0.00  0.00    -0.168 NA
ATOM      8  C   LIG    1       -2.382  -3.180  -0.893  0.00  0.00    +0.203 A 
ATOM      9  C   LIG    1       -2.894  -3.335  -2.166  0.00  0.00    +0.272 A 
ATOM     10  O   LIG    1       -3.643  -4.323  -2.420  0.00  0.00    -0.266 OA
ATOM     11  N   LIG    1       -2.569  -2.420  -3.085  0.00  0.00    -0.272 N 
ATOM     12  H   LIG    1       -2.949  -2.530  -4.038  0.00  0.00    +0.174 HD
ATOM     13  C   LIG    1       -1.762  -1.395  -2.728  0.00  0.00    +0.348 A 
ATOM     14  O   LIG    1       -1.503  -0.566  -3.665  0.00  0.00    -0.245 OA
ENDBRANCH   5   6
BRANCH   1  15
ATOM     15  O   LIG    1       -1.646   0.840   0.664  0.00  0.00    -0.453 OA
BRANCH  15  16
ATOM     16  C   LIG    1       -2.507   0.351   1.633  0.00  0.00    +0.304 C 
ATOM     17  O   LIG    1       -2.181  -0.727   2.185  0.00  0.00    -0.251 OA
ATOM     18  C   LIG    1       -3.731   1.113   1.949  0.00  0.00    +0.136 C 
ENDBRANCH  15  16
ENDBRANCH   1  15
BRANCH   2  19
ATOM     19  O   LIG    1        0.514   2.458   0.359  0.00  0.00    -0.455 OA
BRANCH  19  20
ATOM     20  C   LIG    1        0.991   3.290   1.361  0.00  0.00    +0.304 C 
ATOM     21  O   LIG    1        1.641   2.757   2.294  0.00  0.00    -0.251 OA
ATOM     22  C   LIG    1        0.748   4.742   1.336  0.00  0.00    +0.136 C 
ENDBRANCH  19  20
ENDBRANCH   2  19
BRANCH   3  23
ATOM     23  C   LIG    1        3.005   0.592  -0.599  0.00  0.00    +0.267 C 
BRANCH  23  24
ATOM     24  O   LIG    1        3.459  -0.346   0.315  0.00  0.00    -0.462 OA
BRANCH  24  25
ATOM     25  C   LIG    1        3.335  -1.708   0.254  0.00  0.00    +0.304 C 
ATOM     26  C   LIG    1        3.863  -2.633   1.302  0.00  0.00    +0.136 C 
ATOM     27  O   LIG    1        2.748  -2.209  -0.733  0.00  0.00    -0.251 OA
ENDBRANCH  24  25
ENDBRANCH  23  24
ENDBRANCH   3  23
TORSDOF 8
