REMARK  Name = molecules/QQQIECGTIMUVDS-UHFFFAOYSA-N.pdb
REMARK                            x       y       z     vdW  Elec       q    Type
REMARK                         _______ _______ _______ _____ _____    ______ ____
ROOT
ATOM      1  C   LIG    1        2.175   0.181  -1.620  0.00  0.00    +0.244 C 
ATOM      2  N   LIG    1        2.017  -1.218  -1.734  0.00  0.00    -0.307 N 
ATOM      3  H   LIG    1        2.672  -1.868  -1.256  0.00  0.00    +0.149 HD
ATOM      4  O   LIG    1        1.365   0.952  -2.203  0.00  0.00    -0.270 OA
ENDROOT
BRANCH   1   5
ATOM      5  C   LIG    1        3.272   0.706  -0.831  0.00  0.00    +0.040 A 
ATOM      6  C   LIG    1        3.128   1.946  -0.263  0.00  0.00    +0.017 A 
ATOM      7  C   LIG    1        4.137   2.504   0.501  0.00  0.00    +0.050 A 
ATOM      8  C   LIG    1        5.306   1.815   0.700  0.00  0.00    +0.162 A 
ATOM      9  C   LIG    1        5.469   0.570   0.140  0.00  0.00    +0.162 A 
ATOM     10  C   LIG    1        4.454   0.035  -0.615  0.00  0.00    +0.062 A 
BRANCH   8  11
ATOM     11  O   LIG    1        6.337   2.365   1.468  0.00  0.00    -0.491 OA
ATOM     12  C   LIG    1        6.165   3.635   2.055  0.00  0.00    +0.277 C 
ENDBRANCH   8  11
BRANCH   9  13
ATOM     13  O   LIG    1        6.660  -0.094   0.364  0.00  0.00    -0.491 OA
ATOM     14  C   LIG    1        6.891  -1.387  -0.186  0.00  0.00    +0.277 C 
ENDBRANCH   9  13
ENDBRANCH   1   5
BRANCH   2  15
ATOM     15  C   LIG    1        0.933  -1.746  -2.522  0.00  0.00    +0.139 C 
BRANCH  15  16
ATOM     16  C   LIG    1       -0.331  -1.585  -1.754  0.00  0.00    -0.030 A 
ATOM     17  C   LIG    1       -0.319  -1.126  -0.475  0.00  0.00    +0.009 A 
ATOM     18  C   LIG    1       -1.493  -0.973   0.237  0.00  0.00    +0.046 A 
ATOM     19  C   LIG    1       -2.713  -1.282  -0.330  0.00  0.00    +0.121 A 
ATOM     20  C   LIG    1       -2.720  -1.747  -1.623  0.00  0.00    +0.046 A 
ATOM     21  C   LIG    1       -1.556  -1.903  -2.343  0.00  0.00    +0.009 A 
BRANCH  19  22
ATOM     22  O   LIG    1       -3.847  -1.103   0.444  0.00  0.00    -0.491 OA
BRANCH  22  23
ATOM     23  C   LIG    1       -5.113  -1.411  -0.106  0.00  0.00    +0.244 C 
BRANCH  23  24
ATOM     24  C   LIG    1       -6.185  -1.132   0.939  0.00  0.00    +0.124 C 
BRANCH  24  25
ATOM     25  N   LIG    1       -6.186   0.231   1.344  0.00  0.00    -0.305 NA
ATOM     26  C   LIG    1       -6.536   0.500   2.696  0.00  0.00    +0.104 C 
ATOM     27  C   LIG    1       -6.603   1.185   0.373  0.00  0.00    +0.104 C 
ENDBRANCH  24  25
ENDBRANCH  23  24
ENDBRANCH  22  23
ENDBRANCH  19  22
ENDBRANCH  15  16
ENDBRANCH   2  15
TORSDOF 9
