REMARK  Name = molecules/QRCJOCOSPZMDJY-BQBZGAKWSA-N.pdb
REMARK                            x       y       z     vdW  Elec       q    Type
REMARK                         _______ _______ _______ _____ _____    ______ ____
ROOT
ATOM      1  C   LIG    1       -0.793  -0.619  -0.240  0.00  0.00    +0.077 C 
ENDROOT
BRANCH   1   2
ATOM      2  C   LIG    1       -1.314  -1.404   0.947  0.00  0.00    +0.214 C 
ATOM      3  O   LIG    1       -2.039  -0.927   1.831  0.00  0.00    -0.276 OA
ATOM      4  N   LIG    1       -0.932  -2.762   1.025  0.00  0.00    -0.329 N 
ATOM      5  H   LIG    1       -0.740  -3.247   1.949  0.00  0.00    +0.145 HD
ATOM      6  H   LIG    1       -0.810  -3.387   0.189  0.00  0.00    +0.145 HD
ENDBRANCH   1   2
BRANCH   1   7
ATOM      7  C   LIG    1        0.669  -0.592  -0.286  0.00  0.00    -0.003 C 
ATOM      8  C   LIG    1        1.302  -0.607  -1.670  0.00  0.00    +0.008 C 
BRANCH   7  10
ATOM      9  C   LIG    1        1.629   1.701   0.243  0.00  0.00    +0.004 C 
ATOM     10  C   LIG    1        1.453   0.281   0.607  0.00  0.00    +0.000 C 
ENDBRANCH   7  10
ENDBRANCH   1   7
BRANCH   1  11
ATOM     11  C   LIG    1       -1.587   0.591  -0.496  0.00  0.00    +0.009 C 
ATOM     12  C   LIG    1       -1.461   1.772   0.359  0.00  0.00    +0.004 C 
ENDBRANCH   1  11
TORSDOF 4
