REMARK  Name = molecules/QRJJEGAJXVEBNE-HKOYGPOVSA-N.pdb
REMARK                            x       y       z     vdW  Elec       q    Type
REMARK                         _______ _______ _______ _____ _____    ______ ____
ROOT
ATOM      1  C   LIG    1       -1.127  -0.405  -0.925  0.00  0.00    +0.108 C 
ATOM      2  N   LIG    1        0.148  -0.161  -0.615  0.00  0.00    -0.087 NA
ENDROOT
BRANCH   1   7
ATOM      3  C   LIG    1       -2.732  -3.752   1.136  0.00  0.00    +0.042 A 
ATOM      4 CL   LIG    1       -3.325  -5.122   2.052  0.00  0.00    -0.083 Cl
ATOM      5  C   LIG    1       -1.475  -3.289   1.415  0.00  0.00    +0.021 A 
ATOM      6  C   LIG    1       -0.983  -2.220   0.717  0.00  0.00    +0.013 A 
ATOM      7  C   LIG    1       -1.694  -1.550  -0.286  0.00  0.00    +0.020 A 
ATOM      8  C   LIG    1       -2.953  -2.031  -0.553  0.00  0.00    +0.051 A 
ATOM      9 CL   LIG    1       -3.991  -1.404  -1.808  0.00  0.00    -0.083 Cl
ATOM     10  C   LIG    1       -3.459  -3.123   0.158  0.00  0.00    +0.040 A 
ENDBRANCH   1   7
BRANCH   2  11
ATOM     11  O   LIG    1        0.845   0.884  -1.130  0.00  0.00    -0.389 OA
BRANCH  11  12
ATOM     12  C   LIG    1        1.770   1.606  -0.386  0.00  0.00    +0.299 C 
BRANCH  12  13
ATOM     13  C   LIG    1        2.906   0.827   0.143  0.00  0.00    +0.011 A 
ATOM     14  C   LIG    1        3.850   1.492   0.889  0.00  0.00    +0.049 A 
ATOM     15  C   LIG    1        4.954   0.865   1.431  0.00  0.00    +0.040 A 
ATOM     16  C   LIG    1        5.145  -0.486   1.233  0.00  0.00    +0.042 A 
ATOM     17 CL   LIG    1        6.533  -1.340   1.900  0.00  0.00    -0.083 Cl
ATOM     18  C   LIG    1        4.189  -1.157   0.478  0.00  0.00    +0.020 A 
ATOM     19 CL   LIG    1        3.651   3.224   1.171  0.00  0.00    -0.083 Cl
ATOM     20  C   LIG    1        3.094  -0.518  -0.056  0.00  0.00    +0.010 A 
ENDBRANCH  12  13
ENDBRANCH  11  12
ENDBRANCH   2  11
BRANCH   1  21
ATOM     21  C   LIG    1       -1.706   0.606  -1.800  0.00  0.00    +0.182 C 
BRANCH  21  22
ATOM     22  N   LIG    1       -2.291   1.736  -1.120  0.00  0.00    -0.331 N 
ATOM     23  C   LIG    1       -3.538   1.865  -0.693  0.00  0.00    +0.199 A 
ATOM     24  N   LIG    1       -3.678   3.076  -0.106  0.00  0.00    -0.244 NA
ATOM     25  C   LIG    1       -2.520   3.751  -0.145  0.00  0.00    +0.130 A 
ATOM     26  C   LIG    1       -1.651   2.877  -0.796  0.00  0.00    +0.107 A 
ENDBRANCH  21  22
ENDBRANCH   1  21
TORSDOF 6
