REMARK  Name = molecules/QROONAIPJKQFMC-UHFFFAOYSA-N.pdb
REMARK                            x       y       z     vdW  Elec       q    Type
REMARK                         _______ _______ _______ _____ _____    ______ ____
ROOT
ATOM      1  C   LIG    1       -0.184  -1.767  -0.276  0.00  0.00    +0.129 A 
ATOM      2  C   LIG    1       -1.501  -1.476  -0.202  0.00  0.00    +0.048 A 
ATOM      3  C   LIG    1       -2.221  -0.347   0.102  0.00  0.00    +0.018 A 
ATOM      4  C   LIG    1       -1.839   0.937   0.374  0.00  0.00    -0.008 A 
ATOM      5  C   LIG    1       -2.809   1.879   0.650  0.00  0.00    -0.014 A 
ATOM      6  C   LIG    1       -2.505   3.235   0.802  0.00  0.00    +0.054 A 
ATOM      7  C   LIG    1       -1.216   3.688   0.676  0.00  0.00    +0.117 A 
ATOM      8  C   LIG    1       -0.237   2.788   0.395  0.00  0.00    +0.046 A 
ATOM      9  C   LIG    1       -4.168   1.552   0.637  0.00  0.00    +0.010 A 
ATOM     10  C   LIG    1       -4.522   0.269   0.336  0.00  0.00    +0.027 A 
ATOM     11  C   LIG    1       -0.571   1.446   0.249  0.00  0.00    +0.013 A 
ATOM     12  C   LIG    1       -3.578  -0.693   0.059  0.00  0.00    +0.048 A 
ATOM     13  N   LIG    1       -3.687  -1.986  -0.286  0.00  0.00    -0.354 N 
ATOM     14  H   LIG    1       -4.581  -2.511  -0.398  0.00  0.00    +0.166 HD
ATOM     15  C   LIG    1       -2.454  -2.486  -0.464  0.00  0.00    +0.055 A 
ATOM     16  C   LIG    1       -2.024  -3.748  -0.813  0.00  0.00    -0.008 A 
ATOM     17  C   LIG    1       -0.688  -4.008  -0.900  0.00  0.00    +0.118 A 
ATOM     18  C   LIG    1       -3.058  -4.779  -1.083  0.00  0.00    +0.047 C 
ATOM     19  N   LIG    1        0.192  -3.049  -0.640  0.00  0.00    -0.240 NA
ENDROOT
BRANCH   1  20
ATOM     20  N   LIG    1        0.835  -1.074   0.440  0.00  0.00    -0.328 N 
ATOM     21  H   LIG    1        0.732  -0.460   1.260  0.00  0.00    +0.147 HD
BRANCH  20  22
ATOM     22  C   LIG    1        2.208  -1.414   0.062  0.00  0.00    +0.104 C 
BRANCH  22  23
ATOM     23  C   LIG    1        3.265  -0.739   0.830  0.00  0.00    +0.034 C 
BRANCH  23  24
ATOM     24  C   LIG    1        3.364   0.730   0.777  0.00  0.00    +0.085 C 
BRANCH  24  25
ATOM     25  N   LIG    1        3.598   1.295  -0.520  0.00  0.00    -0.308 NA
ATOM     26  C   LIG    1        3.532   2.757  -0.336  0.00  0.00    +0.104 C 
ATOM     27  C   LIG    1        4.894   0.980  -1.069  0.00  0.00    +0.104 C 
ENDBRANCH  24  25
ENDBRANCH  23  24
ENDBRANCH  22  23
ENDBRANCH  20  22
ENDBRANCH   1  20
BRANCH   7  28
ATOM     28  O   LIG    1       -0.918   5.027   0.830  0.00  0.00    -0.507 OA
ATOM     29  H   LIG    1       -1.643   5.683   1.037  0.00  0.00    +0.292 HD
ENDBRANCH   7  28
TORSDOF 6
