REMARK  Name = molecules/QRORCRWSRPKEHR-UHFFFAOYSA-N.pdb
REMARK                            x       y       z     vdW  Elec       q    Type
REMARK                         _______ _______ _______ _____ _____    ______ ____
ROOT
ATOM      1  C   LIG    1       -0.671   0.372   0.034  0.00  0.00    +0.124 A 
ATOM      2  C   LIG    1       -1.890  -0.297   0.224  0.00  0.00    -0.003 A 
ATOM      3  C   LIG    1       -3.069   0.389   0.261  0.00  0.00    +0.008 A 
ATOM      4  C   LIG    1       -3.052   1.782   0.106  0.00  0.00    +0.004 A 
ATOM      5  C   LIG    1       -1.889   2.482  -0.084  0.00  0.00    -0.047 A 
ATOM      6  C   LIG    1       -1.851   3.973  -0.233  0.00  0.00    +0.044 C 
ATOM      7  C   LIG    1       -0.707   1.730  -0.117  0.00  0.00    +0.049 A 
ENDROOT
BRANCH   2   8
ATOM      8  C   LIG    1       -1.868  -1.781   0.256  0.00  0.00    +0.016 C 
ATOM      9  C   LIG    1       -2.971  -2.312   1.132  0.00  0.00    +0.012 C 
ATOM     10  C   LIG    1       -2.344  -2.236  -1.170  0.00  0.00    +0.012 C 
ENDBRANCH   2   8
BRANCH   1  11
ATOM     11  O   LIG    1        0.551  -0.338   0.011  0.00  0.00    -0.488 OA
BRANCH  11  12
ATOM     12  C   LIG    1        1.706   0.432  -0.188  0.00  0.00    +0.272 C 
BRANCH  12  13
ATOM     13  C   LIG    1        2.973  -0.289  -0.108  0.00  0.00    +0.157 C 
ATOM     14  N   LIG    1        3.242  -1.528   0.149  0.00  0.00    -0.211 NA
ATOM     15  C   LIG    1        4.678  -1.782   0.121  0.00  0.00    +0.120 C 
ATOM     16  C   LIG    1        5.243  -0.388   0.401  0.00  0.00    +0.099 C 
ATOM     17  N   LIG    1        4.232   0.388  -0.351  0.00  0.00    -0.291 NA
ATOM     18  H   LIG    1        4.441   1.224  -0.899  0.00  0.00    +0.124 HD
ENDBRANCH  12  13
ENDBRANCH  11  12
ENDBRANCH   1  11
TORSDOF 4
