REMARK  Name = molecules/QRQMZZNDJGHPHZ-GFCCVEGCSA-N.pdb
REMARK                            x       y       z     vdW  Elec       q    Type
REMARK                         _______ _______ _______ _____ _____    ______ ____
ROOT
ATOM      1  C   LIG    1        1.742   0.256   0.372  0.00  0.00    +0.080 A 
ATOM      2  C   LIG    1        2.828   0.165   1.269  0.00  0.00    +0.047 A 
ATOM      3  C   LIG    1        4.128   0.358   0.868  0.00  0.00    +0.127 A 
ATOM      4  C   LIG    1        4.330   0.649  -0.459  0.00  0.00    +0.055 A 
ATOM      5  C   LIG    1        3.284   0.743  -1.356  0.00  0.00    +0.071 A 
ATOM      6  C   LIG    1        1.960   0.546  -0.949  0.00  0.00    +0.134 A 
ENDROOT
BRANCH   1   7
ATOM      7  C   LIG    1        0.410   0.037   0.885  0.00  0.00    +0.248 C 
ATOM      8  O   LIG    1        0.291  -0.228   2.129  0.00  0.00    -0.270 OA
ATOM      9  N   LIG    1       -0.763   0.087   0.148  0.00  0.00    -0.310 N 
ATOM     10  H   LIG    1       -0.863   0.286  -0.863  0.00  0.00    +0.149 HD
BRANCH   9  11
ATOM     11  C   LIG    1       -2.079  -0.159   0.802  0.00  0.00    +0.123 C 
BRANCH  11  12
ATOM     12  C   LIG    1       -3.200  -0.056  -0.168  0.00  0.00    +0.074 C 
ATOM     13  N   LIG    1       -4.440  -0.302   0.512  0.00  0.00    -0.294 NA
ATOM     14  C   LIG    1       -5.269  -1.074  -0.400  0.00  0.00    +0.085 C 
ATOM     15  C   LIG    1       -4.331  -1.873  -1.252  0.00  0.00    +0.017 C 
ATOM     16  C   LIG    1       -3.109  -0.985  -1.327  0.00  0.00    +0.022 C 
BRANCH  13  17
ATOM     17  C   LIG    1       -5.136   0.928   0.868  0.00  0.00    +0.111 C 
BRANCH  17  18
ATOM     18  C   LIG    1       -6.386   0.529   1.557  0.00  0.00    -0.019 C 
ATOM     19  C   LIG    1       -7.592   0.877   1.077  0.00  0.00    +0.005 C 
ENDBRANCH  17  18
ENDBRANCH  13  17
ENDBRANCH  11  12
ENDBRANCH   9  11
ENDBRANCH   1   7
BRANCH   3  20
ATOM     20  S   LIG    1        5.418   0.189   2.050  0.00  0.00    +0.060 S 
ATOM     21  O   LIG    1        4.840   0.121   3.446  0.00  0.00    -0.153 OA
ATOM     22  O   LIG    1        6.267   1.449   2.035  0.00  0.00    -0.153 OA
BRANCH  20  23
ATOM     23  N   LIG    1        6.441  -1.127   1.813  0.00  0.00    -0.193 NA
ATOM     24  H   LIG    1        6.880  -1.520   2.649  0.00  0.00    +0.148 HD
ATOM     25  C   LIG    1        7.195  -1.196   0.626  0.00  0.00    +0.127 C 
ENDBRANCH  20  23
ENDBRANCH   3  20
BRANCH   4  26
ATOM     26  N   LIG    1        5.674   0.885  -0.894  0.00  0.00    -0.356 N 
ATOM     27  H   LIG    1        6.277   1.521  -0.343  0.00  0.00    +0.142 HD
ATOM     28  H   LIG    1        6.034   0.432  -1.739  0.00  0.00    +0.142 HD
ENDBRANCH   4  26
BRANCH   6  29
ATOM     29  O   LIG    1        0.939   0.649  -1.882  0.00  0.00    -0.494 OA
ATOM     30  C   LIG    1        1.262   0.952  -3.222  0.00  0.00    +0.277 C 
ENDBRANCH   6  29
TORSDOF 9
