REMARK  Name = molecules/QRXWMOHMRWLFEY-UHFFFAOYSA-N.pdb
REMARK                            x       y       z     vdW  Elec       q    Type
REMARK                         _______ _______ _______ _____ _____    ______ ____
ROOT
ATOM      1  N   LIG    1       -2.052  -0.144   0.093  0.00  0.00    -0.250 N 
ATOM      2  H   LIG    1       -3.067   0.303  -0.697  0.00  0.00    +0.169 HD
ATOM      3  C   LIG    1       -1.113   0.453  -0.703  0.00  0.00    +0.257 C 
ATOM      4  O   LIG    1       -1.277   1.144  -1.750  0.00  0.00    -0.269 OA
ENDROOT
BRANCH   3   5
ATOM      5  C   LIG    1        0.341   0.312  -0.347  0.00  0.00    +0.041 A 
ATOM      6  C   LIG    1        1.088   1.379   0.061  0.00  0.00    +0.033 A 
ATOM      7  C   LIG    1        2.435   1.171   0.391  0.00  0.00    +0.111 A 
ATOM      8  N   LIG    1        2.967  -0.057   0.300  0.00  0.00    -0.263 NA
ATOM      9  C   LIG    1        2.273  -1.136  -0.097  0.00  0.00    +0.111 A 
ATOM     10  C   LIG    1        0.934  -0.926  -0.423  0.00  0.00    +0.033 A 
ENDBRANCH   3   5
BRANCH   1  11
ATOM     11  N   LIG    1       -2.948  -0.714   0.851  0.00  0.00    -0.254 NA
ATOM     12  H   LIG    1       -2.843  -0.699   1.890  0.00  0.00    +0.140 HD
ATOM     13  H   LIG    1       -3.465  -1.555   0.508  0.00  0.00    +0.140 HD
ENDBRANCH   1  11
TORSDOF 2
