REMARK  Name = molecules/QSAVEGSLJISCDF-NWANDNLSSA-N.pdb
REMARK                            x       y       z     vdW  Elec       q    Type
REMARK                         _______ _______ _______ _____ _____    ______ ____
ROOT
ATOM      1  O   LIG    1        0.674   0.945  -0.406  0.00  0.00    -0.459 OA
ENDROOT
BRANCH   1   2
ATOM      2  C   LIG    1       -0.692   0.596  -0.542  0.00  0.00    +0.180 C 
ATOM      3  C   LIG    1       -1.613   1.621   0.026  0.00  0.00    +0.063 C 
ATOM      4  C   LIG    1       -2.560   1.087   1.069  0.00  0.00    +0.057 C 
ATOM      5  C   LIG    1       -1.874   0.916   2.405  0.00  0.00    +0.024 C 
ATOM      6  N   LIG    1       -3.262  -0.087   0.646  0.00  0.00    -0.297 NA
ATOM      7  C   LIG    1       -2.453  -1.041  -0.057  0.00  0.00    +0.020 C 
ATOM      8  C   LIG    1       -2.698  -2.410   0.591  0.00  0.00    +0.028 C 
ATOM      9  C   LIG    1       -2.882  -1.169  -1.503  0.00  0.00    +0.028 C 
ATOM     10  C   LIG    1       -4.440   0.307  -0.082  0.00  0.00    +0.105 C 
ATOM     11  C   LIG    1       -0.984  -0.771   0.025  0.00  0.00    +0.066 C 
ENDBRANCH   1   2
BRANCH   1  12
ATOM     12  C   LIG    1        1.524   1.145  -1.490  0.00  0.00    +0.341 C 
ATOM     13  O   LIG    1        0.967   0.987  -2.629  0.00  0.00    -0.248 OA
BRANCH  12  14
ATOM     14  C   LIG    1        2.935   1.506  -1.372  0.00  0.00    +0.253 C 
BRANCH  14  15
ATOM     15  C   LIG    1        3.797   0.547  -0.683  0.00  0.00    -0.008 A 
ATOM     16  C   LIG    1        3.306  -0.488   0.081  0.00  0.00    +0.007 A 
ATOM     17  C   LIG    1        4.181  -1.355   0.701  0.00  0.00    +0.000 A 
ATOM     18  C   LIG    1        5.551  -1.232   0.591  0.00  0.00    +0.000 A 
ATOM     19  C   LIG    1        6.043  -0.190  -0.179  0.00  0.00    +0.000 A 
ATOM     20  C   LIG    1        5.164   0.692  -0.810  0.00  0.00    +0.007 A 
ENDBRANCH  14  15
BRANCH  14  21
ATOM     21  O   LIG    1        3.459   1.643  -2.673  0.00  0.00    -0.376 OA
ATOM     22  H   LIG    1        3.094   0.959  -3.280  0.00  0.00    +0.211 HD
ENDBRANCH  14  21
ENDBRANCH  12  14
ENDBRANCH   1  12
TORSDOF 5
