REMARK  Name = molecules/QSFOWAYMMZCQNF-INIZCTEOSA-N.pdb
REMARK                            x       y       z     vdW  Elec       q    Type
REMARK                         _______ _______ _______ _____ _____    ______ ____
ROOT
ATOM      1  C   LIG    1        1.534  -0.233   0.912  0.00  0.00    +0.021 C 
ENDROOT
BRANCH   1   2
ATOM      2  C   LIG    1        2.402  -1.118   0.162  0.00  0.00    +0.082 C 
ATOM      3  N   LIG    1        3.789  -0.780   0.028  0.00  0.00    -0.293 NA
ATOM      4  C   LIG    1        4.148  -0.534  -1.360  0.00  0.00    +0.113 C 
ATOM      5  C   LIG    1        2.994   0.077  -2.070  0.00  0.00    +0.175 C 
ATOM      6  O   LIG    1        1.912  -0.812  -2.161  0.00  0.00    -0.377 OA
ATOM      7  C   LIG    1        1.936  -1.714  -1.115  0.00  0.00    +0.178 C 
BRANCH   3   8
ATOM      8  C   LIG    1        4.527  -0.119   0.968  0.00  0.00    +0.112 C 
BRANCH   8   9
ATOM      9  C   LIG    1        4.374   1.319   1.266  0.00  0.00    +0.171 C 
BRANCH   9  10
ATOM     10  O   LIG    1        5.294   1.732   2.281  0.00  0.00    -0.394 OA
ATOM     11  H   LIG    1        6.149   1.232   2.182  0.00  0.00    +0.209 HD
ENDBRANCH   9  10
ENDBRANCH   8   9
ENDBRANCH   3   8
ENDBRANCH   1   2
BRANCH   1  12
ATOM     12  C   LIG    1        0.068  -0.479   1.046  0.00  0.00    +0.002 C 
BRANCH  12  13
ATOM     13  C   LIG    1       -0.803  -0.333  -0.128  0.00  0.00    +0.003 C 
BRANCH  13  14
ATOM     14  C   LIG    1       -2.269  -0.638   0.169  0.00  0.00    -0.011 C 
BRANCH  14  15
ATOM     15  C   LIG    1       -2.853   0.218   1.240  0.00  0.00    +0.003 C 
BRANCH  15  16
ATOM     16  C   LIG    1       -4.308  -0.156   1.468  0.00  0.00    -0.003 C 
ATOM     17  C   LIG    1       -4.894   0.716   2.588  0.00  0.00    +0.004 C 
ENDBRANCH  15  16
ENDBRANCH  14  15
BRANCH  14  18
ATOM     18  C   LIG    1       -3.024  -0.461  -1.121  0.00  0.00    +0.003 C 
BRANCH  18  19
ATOM     19  C   LIG    1       -2.929   0.944  -1.679  0.00  0.00    -0.003 C 
ATOM     20  C   LIG    1       -3.759   0.950  -2.976  0.00  0.00    +0.004 C 
ENDBRANCH  18  19
ENDBRANCH  14  18
ENDBRANCH  13  14
ENDBRANCH  12  13
ENDBRANCH   1  12
TORSDOF 11
