REMARK  Name = molecules/QSLJIVKCVHQPLV-PEMPUTJUSA-N.pdb
REMARK                            x       y       z     vdW  Elec       q    Type
REMARK                         _______ _______ _______ _____ _____    ______ ____
ROOT
ATOM      1  C   LIG    1        2.363  -1.379  -1.300  0.00  0.00    +0.015 C 
ATOM      2  C   LIG    1        2.186   0.013  -0.690  0.00  0.00    +0.009 C 
ATOM      3  C   LIG    1        2.833   0.084   0.672  0.00  0.00    +0.009 C 
ATOM      4  C   LIG    1        2.193  -0.926   1.585  0.00  0.00    +0.005 C 
ATOM      5  C   LIG    1        0.740  -0.589   1.741  0.00  0.00    +0.004 C 
ATOM      6  C   LIG    1        0.014  -0.627   0.399  0.00  0.00    -0.004 C 
ATOM      7  C   LIG    1       -1.353  -0.102   0.613  0.00  0.00    +0.001 C 
ATOM      8  C   LIG    1       -2.311  -1.008   1.298  0.00  0.00    +0.007 C 
ATOM      9  C   LIG    1       -3.652  -0.339   1.007  0.00  0.00    +0.035 C 
ATOM     10  C   LIG    1       -3.418   0.558  -0.200  0.00  0.00    +0.069 C 
ATOM     11  C   LIG    1       -3.435   2.007   0.210  0.00  0.00    +0.042 C 
ATOM     12  C   LIG    1       -2.100   0.098  -0.714  0.00  0.00    -0.000 C 
ATOM     13  C   LIG    1       -2.296  -1.205  -1.441  0.00  0.00    +0.014 C 
ATOM     14  C   LIG    1       -1.374   1.041  -1.590  0.00  0.00    +0.010 C 
ATOM     15  C   LIG    1        0.012   0.433  -1.852  0.00  0.00    +0.005 C 
ATOM     16  C   LIG    1        4.320  -0.067   0.635  0.00  0.00    +0.124 C 
ATOM     17  C   LIG    1        4.855   0.992  -0.287  0.00  0.00    +0.307 C 
ATOM     18  O   LIG    1        5.905   1.631  -0.024  0.00  0.00    -0.251 OA
ATOM     19  O   LIG    1        4.153   1.237  -1.433  0.00  0.00    -0.464 OA
ATOM     20  C   LIG    1        0.737   0.330  -0.538  0.00  0.00    +0.002 C 
ATOM     21  C   LIG    1        2.799   0.992  -1.641  0.00  0.00    +0.239 C 
ENDROOT
BRANCH  10  22
ATOM     22  O   LIG    1       -4.385   0.337  -1.185  0.00  0.00    -0.388 OA
ATOM     23  H   LIG    1       -5.156  -0.158  -0.835  0.00  0.00    +0.210 HD
ENDBRANCH  10  22
TORSDOF 1
