REMARK  Name = molecules/QSLMDECMDJKHMQ-GSXCWMCISA-N.pdb
REMARK                            x       y       z     vdW  Elec       q    Type
REMARK                         _______ _______ _______ _____ _____    ______ ____
ROOT
ATOM      1  C   LIG    1       -0.341   0.141   0.208  0.00  0.00    +0.021 C 
ATOM      2  C   LIG    1       -0.637   0.002   1.691  0.00  0.00    +0.017 C 
ATOM      3  C   LIG    1       -2.068  -0.272   1.988  0.00  0.00    +0.014 C 
ATOM      4  C   LIG    1       -2.883  -0.322   0.714  0.00  0.00    +0.050 C 
ATOM      5  C   LIG    1       -2.622   0.984   0.004  0.00  0.00    -0.036 A 
ATOM      6  C   LIG    1       -3.593   1.862  -0.353  0.00  0.00    +0.004 A 
ATOM      7  C   LIG    1       -3.192   3.027  -1.011  0.00  0.00    +0.000 A 
ATOM      8  C   LIG    1       -1.866   3.282  -1.289  0.00  0.00    +0.000 A 
ATOM      9  C   LIG    1       -0.890   2.355  -0.907  0.00  0.00    +0.005 A 
ATOM     10  C   LIG    1       -2.219  -1.336  -0.178  0.00  0.00    -0.036 A 
ATOM     11  C   LIG    1       -2.876  -2.406  -0.702  0.00  0.00    +0.004 A 
ATOM     12  C   LIG    1       -2.204  -3.253  -1.549  0.00  0.00    +0.000 A 
ATOM     13  C   LIG    1       -0.885  -2.999  -1.849  0.00  0.00    +0.000 A 
ATOM     14  C   LIG    1       -0.211  -1.891  -1.303  0.00  0.00    +0.005 A 
ATOM     15  C   LIG    1       -1.285   1.232  -0.272  0.00  0.00    -0.033 A 
ATOM     16  C   LIG    1       -0.872  -1.052  -0.462  0.00  0.00    -0.033 A 
ENDROOT
BRANCH   1  17
ATOM     17  C   LIG    1        1.049   0.524  -0.051  0.00  0.00    +0.017 C 
BRANCH  17  18
ATOM     18  C   LIG    1        2.132  -0.374   0.418  0.00  0.00    +0.016 C 
BRANCH  18  19
ATOM     19  C   LIG    1        3.469   0.253  -0.009  0.00  0.00    +0.080 C 
BRANCH  19  20
ATOM     20  N   LIG    1        4.578  -0.572   0.418  0.00  0.00    -0.319 NA
ATOM     21  H   LIG    1        4.535  -0.863   1.399  0.00  0.00    +0.122 HD
ATOM     22  C   LIG    1        5.825   0.021   0.014  0.00  0.00    +0.101 C 
ENDBRANCH  19  20
ENDBRANCH  18  19
ENDBRANCH  17  18
ENDBRANCH   1  17
TORSDOF 4
