REMARK  Name = molecules/QSRHLIUOSXVKTG-YADHBBJMSA-N.pdb
REMARK                            x       y       z     vdW  Elec       q    Type
REMARK                         _______ _______ _______ _____ _____    ______ ____
ROOT
ATOM      1  N   LIG    1       -1.640   0.289  -0.124  0.00  0.00    -0.297 NA
ATOM      2  C   LIG    1       -0.449   1.005   0.207  0.00  0.00    +0.100 C 
ATOM      3  C   LIG    1        0.456   0.143   1.025  0.00  0.00    +0.100 C 
ATOM      4  N   LIG    1        1.077  -0.836   0.133  0.00  0.00    -0.300 NA
ATOM      5  C   LIG    1        0.215  -1.080  -1.014  0.00  0.00    +0.100 C 
ATOM      6  C   LIG    1       -1.245  -1.013  -0.633  0.00  0.00    +0.100 C 
ENDROOT
BRANCH   1   7
ATOM      7  C   LIG    1       -2.507   0.162   1.021  0.00  0.00    +0.120 C 
BRANCH   7   8
ATOM      8  C   LIG    1       -3.838  -0.489   0.708  0.00  0.00    +0.162 C 
BRANCH   8   9
ATOM      9  C   LIG    1       -4.692   0.372  -0.128  0.00  0.00    -0.018 A 
ATOM     10  C   LIG    1       -4.256   1.633  -0.449  0.00  0.00    +0.006 A 
ATOM     11  C   LIG    1       -5.061   2.434  -1.228  0.00  0.00    +0.000 A 
ATOM     12  C   LIG    1       -6.274   1.987  -1.678  0.00  0.00    +0.000 A 
ATOM     13  C   LIG    1       -6.713   0.724  -1.358  0.00  0.00    +0.000 A 
ATOM     14  C   LIG    1       -5.893  -0.086  -0.567  0.00  0.00    +0.006 A 
ENDBRANCH   8   9
BRANCH   8  15
ATOM     15  O   LIG    1       -3.749  -1.756   0.199  0.00  0.00    -0.374 OA
ATOM     16  C   LIG    1       -4.287  -2.688   1.056  0.00  0.00    +0.194 C 
ENDBRANCH   8  15
ENDBRANCH   7   8
ENDBRANCH   1   7
BRANCH   4  17
ATOM     17  C   LIG    1        2.299  -0.161  -0.337  0.00  0.00    +0.087 C 
BRANCH  17  18
ATOM     18  C   LIG    1        3.143  -1.063  -1.171  0.00  0.00    +0.051 C 
BRANCH  18  19
ATOM     19  C   LIG    1        4.380  -0.375  -1.673  0.00  0.00    +0.146 C 
BRANCH  19  20
ATOM     20  C   LIG    1        5.276   0.036  -0.556  0.00  0.00    -0.019 A 
ATOM     21  C   LIG    1        5.042   1.221   0.111  0.00  0.00    +0.006 A 
ATOM     22  C   LIG    1        5.846   1.614   1.136  0.00  0.00    +0.000 A 
ATOM     23  C   LIG    1        6.919   0.849   1.547  0.00  0.00    +0.000 A 
ATOM     24  C   LIG    1        7.148  -0.341   0.873  0.00  0.00    +0.000 A 
ATOM     25  C   LIG    1        6.331  -0.743  -0.172  0.00  0.00    +0.006 A 
ENDBRANCH  19  20
BRANCH  19  26
ATOM     26  O   LIG    1        4.076   0.726  -2.484  0.00  0.00    -0.387 OA
ATOM     27  H   LIG    1        3.554   1.419  -2.052  0.00  0.00    +0.210 HD
ENDBRANCH  19  26
ENDBRANCH  18  19
ENDBRANCH  17  18
ENDBRANCH   4  17
TORSDOF 9
