REMARK  Name = molecules/QSWDMMVNRMROPK-UHFFFAOYSA-K.pdb
REMARK                            x       y       z     vdW  Elec       q    Type
REMARK                         _______ _______ _______ _____ _____    ______ ____
ROOT
ATOM      1 CR   LIG    1       -0.276  -0.150  -0.018  0.00  0.00    +0.000 Cr
ATOM      2 CL   LIG    1        1.852  -0.432   0.089  0.00  0.00    +0.000 Cl
ATOM      3 CL   LIG    1       -0.366   1.787  -0.017  0.00  0.00    +0.000 Cl
ATOM      4 CL   LIG    1       -1.209  -1.204  -0.054  0.00  0.00    +0.000 Cl
ENDROOT
TORSDOF 0
