REMARK  Name = molecules/QTGAJCQTLIRCFL-UHFFFAOYSA-N.pdb
REMARK                            x       y       z     vdW  Elec       q    Type
REMARK                         _______ _______ _______ _____ _____    ______ ____
ROOT
ATOM      1  C   LIG    1        0.723   0.211   0.507  0.00  0.00    +0.132 A 
ATOM      2  C   LIG    1        1.168  -0.998   0.967  0.00  0.00    +0.048 A 
ATOM      3  C   LIG    1        2.499  -1.303   0.902  0.00  0.00    +0.027 A 
ATOM      4  C   LIG    1        3.461  -0.441   0.384  0.00  0.00    +0.034 A 
ATOM      5  C   LIG    1        3.002   0.763  -0.070  0.00  0.00    +0.027 A 
ATOM      6  C   LIG    1        1.634   1.091  -0.010  0.00  0.00    +0.048 A 
ENDROOT
BRANCH   4   7
ATOM      7  N   LIG    1        4.826  -0.778   0.325  0.00  0.00    -0.286 N 
ATOM      8  H   LIG    1        5.084  -1.649   0.901  0.00  0.00    +0.155 HD
ATOM      9  C   LIG    1        5.836  -0.107  -0.386  0.00  0.00    +0.214 C 
ATOM     10  C   LIG    1        7.238  -0.647  -0.303  0.00  0.00    +0.109 C 
ATOM     11  O   LIG    1        5.702   0.906  -1.092  0.00  0.00    -0.276 OA
ENDBRANCH   4   7
BRANCH   1  12
ATOM     12  O   LIG    1       -0.621   0.552   0.550  0.00  0.00    -0.425 OA
BRANCH  12  13
ATOM     13  C   LIG    1       -1.265   1.064  -0.553  0.00  0.00    +0.327 C 
ATOM     14  O   LIG    1       -0.541   1.204  -1.610  0.00  0.00    -0.249 OA
BRANCH  13  15
ATOM     15  C   LIG    1       -2.655   1.462  -0.633  0.00  0.00    +0.206 C 
BRANCH  15  16
ATOM     16  N   LIG    1       -3.665   0.511  -0.274  0.00  0.00    -0.293 NA
BRANCH  16  17
ATOM     17  C   LIG    1       -3.536   0.040   1.077  0.00  0.00    +0.081 C 
ATOM     18  C   LIG    1       -3.872   1.196   2.009  0.00  0.00    +0.020 C 
ENDBRANCH  16  17
BRANCH  16  19
ATOM     19  C   LIG    1       -3.781  -0.547  -1.249  0.00  0.00    +0.081 C 
ATOM     20  C   LIG    1       -4.994  -1.378  -0.922  0.00  0.00    +0.020 C 
ENDBRANCH  16  19
ENDBRANCH  15  16
ENDBRANCH  13  15
ENDBRANCH  12  13
ENDBRANCH   1  12
TORSDOF 7
