REMARK  Name = molecules/QTGIAADRBBLJGA-SECBINFHSA-N.pdb
REMARK                            x       y       z     vdW  Elec       q    Type
REMARK                         _______ _______ _______ _____ _____    ______ ____
ROOT
ATOM      1  N   LIG    1       -1.225  -0.993  -0.244  0.00  0.00    -0.283 N 
ATOM      2  C   LIG    1       -0.084  -0.491   0.388  0.00  0.00    +0.234 C 
ATOM      3  O   LIG    1       -0.126  -0.192   1.608  0.00  0.00    -0.274 OA
ATOM      4  H   LIG    1       -1.309  -1.269  -1.243  0.00  0.00    +0.155 HD
ENDROOT
BRANCH   1   5
ATOM      5  C   LIG    1       -2.466  -1.179   0.501  0.00  0.00    +0.058 A 
ATOM      6  C   LIG    1       -2.877  -2.385   0.950  0.00  0.00    -0.021 A 
ATOM      7  C   LIG    1       -4.073  -2.438   1.605  0.00  0.00    +0.051 A 
ATOM      8  S   LIG    1       -4.599  -0.819   1.585  0.00  0.00    -0.088 S 
ATOM      9  C   LIG    1       -2.088  -3.679   0.754  0.00  0.00    +0.046 C 
ATOM     10  C   LIG    1       -3.297  -0.114   0.750  0.00  0.00    +0.118 A 
BRANCH  10  11
ATOM     11  C   LIG    1       -3.068   1.306   0.386  0.00  0.00    +0.347 C 
ATOM     12  O   LIG    1       -2.026   1.587  -0.205  0.00  0.00    -0.244 OA
BRANCH  11  13
ATOM     13  O   LIG    1       -3.999   2.275   0.707  0.00  0.00    -0.464 OA
ATOM     14  C   LIG    1       -3.822   3.643   0.391  0.00  0.00    +0.280 C 
ENDBRANCH  11  13
ENDBRANCH  10  11
ENDBRANCH   1   5
BRANCH   2  15
ATOM     15  C   LIG    1        1.220  -0.270  -0.298  0.00  0.00    +0.138 C 
ATOM     16  C   LIG    1        1.111  -0.153  -1.774  0.00  0.00    +0.034 C 
BRANCH  15  17
ATOM     17  N   LIG    1        1.927   0.787   0.330  0.00  0.00    -0.306 NA
ATOM     18  H   LIG    1        1.324   1.656   0.230  0.00  0.00    +0.123 HD
BRANCH  17  19
ATOM     19  C   LIG    1        3.216   1.116  -0.125  0.00  0.00    +0.081 C 
BRANCH  19  20
ATOM     20  C   LIG    1        4.318   0.147   0.118  0.00  0.00    +0.012 C 
ATOM     21  C   LIG    1        5.583   0.794  -0.474  0.00  0.00    +0.005 C 
ENDBRANCH  19  20
ENDBRANCH  17  19
ENDBRANCH  15  17
ENDBRANCH   2  15
TORSDOF 7
