REMARK  Name = molecules/QTQPVLDZQVPLGV-AWEZNQCLSA-N.pdb
REMARK                            x       y       z     vdW  Elec       q    Type
REMARK                         _______ _______ _______ _____ _____    ______ ____
ROOT
ATOM      1  N   LIG    1       -0.826   0.309   0.295  0.00  0.00    -0.297 N 
ATOM      2  C   LIG    1       -1.382  -0.918   0.822  0.00  0.00    +0.060 A 
ATOM      3  C   LIG    1       -0.545  -1.818   1.446  0.00  0.00    +0.025 A 
ATOM      4  C   LIG    1       -0.981  -3.030   1.986  0.00  0.00    +0.002 A 
ATOM      5  C   LIG    1       -2.308  -3.302   1.870  0.00  0.00    +0.002 A 
ATOM      6  C   LIG    1       -3.170  -2.445   1.262  0.00  0.00    +0.029 A 
ATOM      7  C   LIG    1       -2.697  -1.254   0.741  0.00  0.00    +0.115 A 
ATOM      8  S   LIG    1       -3.833  -0.210  -0.048  0.00  0.00    +0.029 S 
ATOM      9  O   LIG    1       -5.016   0.115   0.796  0.00  0.00    -0.164 OA
ATOM     10  C   LIG    1       -2.963   1.193  -0.579  0.00  0.00    +0.115 A 
ATOM     11  C   LIG    1       -3.714   2.174  -1.213  0.00  0.00    +0.029 A 
ATOM     12  C   LIG    1       -3.091   3.306  -1.655  0.00  0.00    +0.002 A 
ATOM     13  C   LIG    1       -1.740   3.444  -1.460  0.00  0.00    +0.002 A 
ATOM     14  C   LIG    1       -1.012   2.440  -0.820  0.00  0.00    +0.025 A 
ATOM     15  O   LIG    1       -4.253  -0.949  -1.315  0.00  0.00    -0.164 OA
ATOM     16  C   LIG    1       -1.609   1.292  -0.365  0.00  0.00    +0.060 A 
ENDROOT
BRANCH   1  17
ATOM     17  C   LIG    1        0.591   0.498   0.420  0.00  0.00    +0.115 C 
BRANCH  17  19
ATOM     18  C   LIG    1        0.928   0.352  -2.093  0.00  0.00    +0.010 C 
ATOM     19  C   LIG    1        1.320  -0.160  -0.718  0.00  0.00    +0.018 C 
BRANCH  19  20
ATOM     20  C   LIG    1        2.816  -0.073  -0.670  0.00  0.00    +0.088 C 
BRANCH  20  21
ATOM     21  N   LIG    1        3.499  -0.476   0.473  0.00  0.00    -0.308 NA
ATOM     22  C   LIG    1        3.450   0.312   1.636  0.00  0.00    +0.104 C 
ATOM     23  C   LIG    1        4.780  -1.117   0.237  0.00  0.00    +0.104 C 
ENDBRANCH  20  21
ENDBRANCH  19  20
ENDBRANCH  17  19
ENDBRANCH   1  17
TORSDOF 4
