REMARK  Name = molecules/QTQWMSOQOSJFBV-OAHLLOKOSA-N.pdb
REMARK                            x       y       z     vdW  Elec       q    Type
REMARK                         _______ _______ _______ _____ _____    ______ ____
ROOT
ATOM      1  N   LIG    1       -1.375  -2.139   0.350  0.00  0.00    -0.340 N 
ATOM      2  H   LIG    1       -1.762  -2.842   1.017  0.00  0.00    +0.146 HD
ENDROOT
BRANCH   1   3
ATOM      3  C   LIG    1       -2.182  -1.130  -0.241  0.00  0.00    +0.057 A 
ATOM      4  C   LIG    1       -3.491  -1.051   0.254  0.00  0.00    +0.092 A 
ATOM      5  N   LIG    1       -3.902  -1.880   1.235  0.00  0.00    -0.253 NA
ATOM      6  C   LIG    1       -5.143  -1.842   1.743  0.00  0.00    +0.111 A 
ATOM      7  C   LIG    1       -5.997  -0.899   1.206  0.00  0.00    +0.020 A 
ATOM      8  C   LIG    1       -5.626  -0.029   0.202  0.00  0.00    +0.011 A 
ATOM      9  C   LIG    1       -4.326  -0.104  -0.295  0.00  0.00    +0.006 A 
ATOM     10  C   LIG    1       -3.878   0.725  -1.290  0.00  0.00    +0.055 A 
ATOM     11  C   LIG    1       -2.597   0.667  -1.794  0.00  0.00    +0.123 A 
ATOM     12  C   LIG    1       -1.742  -0.292  -1.242  0.00  0.00    +0.070 A 
BRANCH  11  13
ATOM     13  O   LIG    1       -2.163   1.515  -2.801  0.00  0.00    -0.495 OA
ATOM     14  C   LIG    1       -0.838   1.435  -3.304  0.00  0.00    +0.277 C 
ENDBRANCH  11  13
ENDBRANCH   1   3
BRANCH   1  15
ATOM     15  C   LIG    1        0.026  -2.222   0.039  0.00  0.00    +0.067 C 
ATOM     16  C   LIG    1        0.540  -3.572   0.419  0.00  0.00    +0.028 C 
BRANCH  15  17
ATOM     17  C   LIG    1        0.808  -1.081   0.700  0.00  0.00    +0.023 C 
BRANCH  17  18
ATOM     18  C   LIG    1        2.249  -1.152   0.389  0.00  0.00    +0.017 C 
BRANCH  18  19
ATOM     19  C   LIG    1        3.191  -0.184   0.975  0.00  0.00    +0.084 C 
BRANCH  19  20
ATOM     20  N   LIG    1        3.086   1.165   0.718  0.00  0.00    -0.303 NA
BRANCH  20  21
ATOM     21  C   LIG    1        2.114   2.003   1.221  0.00  0.00    +0.081 C 
ATOM     22  C   LIG    1        2.245   3.482   0.802  0.00  0.00    +0.020 C 
ENDBRANCH  20  21
BRANCH  20  23
ATOM     23  C   LIG    1        4.171   1.763  -0.003  0.00  0.00    +0.081 C 
ATOM     24  C   LIG    1        4.301   1.334  -1.417  0.00  0.00    +0.020 C 
ENDBRANCH  20  23
ENDBRANCH  19  20
ENDBRANCH  18  19
ENDBRANCH  17  18
ENDBRANCH  15  17
ENDBRANCH   1  15
TORSDOF 9
