REMARK  Name = molecules/QUAMTGJKVDWJEQ-UHFFFAOYSA-N.pdb
REMARK                            x       y       z     vdW  Elec       q    Type
REMARK                         _______ _______ _______ _____ _____    ______ ____
ROOT
ATOM      1  C   LIG    1       -3.617  -0.141  -0.426  0.00  0.00    +0.064 A 
ATOM      2  C   LIG    1       -3.568   1.044   0.260  0.00  0.00    +0.019 A 
ATOM      3  C   LIG    1       -2.345   1.625   0.640  0.00  0.00    +0.046 A 
ATOM      4  C   LIG    1       -1.146   1.028   0.338  0.00  0.00    +0.124 A 
ATOM      5  C   LIG    1       -1.181  -0.163  -0.353  0.00  0.00    +0.091 A 
ATOM      6  C   LIG    1       -2.377  -0.734  -0.726  0.00  0.00    +0.131 A 
ENDROOT
BRANCH   1   7
ATOM      7  C   LIG    1       -4.842  -0.766  -0.880  0.00  0.00    +0.197 C 
ATOM      8  O   LIG    1       -4.809  -1.727  -1.728  0.00  0.00    -0.287 OA
BRANCH   7   9
ATOM      9  C   LIG    1       -6.160  -0.382  -0.442  0.00  0.00    +0.022 A 
ATOM     10  C   LIG    1       -6.438   0.001   0.845  0.00  0.00    +0.012 A 
ATOM     11  C   LIG    1       -7.732   0.328   1.260  0.00  0.00    +0.001 A 
ATOM     12  C   LIG    1       -8.786   0.276   0.382  0.00  0.00    +0.000 A 
ATOM     13  C   LIG    1       -8.527  -0.106  -0.907  0.00  0.00    +0.001 A 
ATOM     14  C   LIG    1       -7.258  -0.427  -1.317  0.00  0.00    +0.012 A 
ENDBRANCH   7   9
ENDBRANCH   1   7
BRANCH   6  15
ATOM     15  O   LIG    1       -2.418  -1.927  -1.417  0.00  0.00    -0.506 OA
ATOM     16  H   LIG    1       -1.569  -2.413  -1.668  0.00  0.00    +0.292 HD
ENDBRANCH   6  15
BRANCH   4  17
ATOM     17  O   LIG    1        0.080   1.604   0.715  0.00  0.00    -0.492 OA
BRANCH  17  18
ATOM     18  C   LIG    1        1.294   0.948   0.380  0.00  0.00    +0.229 C 
BRANCH  18  19
ATOM     19  C   LIG    1        2.426   1.772   0.901  0.00  0.00    +0.041 C 
BRANCH  19  20
ATOM     20  C   LIG    1        3.796   1.170   0.595  0.00  0.00    +0.003 C 
BRANCH  20  21
ATOM     21  C   LIG    1        3.923  -0.194   1.216  0.00  0.00    +0.000 C 
BRANCH  21  22
ATOM     22  C   LIG    1        5.280  -0.767   0.928  0.00  0.00    -0.000 C 
BRANCH  22  23
ATOM     23  C   LIG    1        5.476  -0.893  -0.545  0.00  0.00    -0.000 C 
BRANCH  23  24
ATOM     24  C   LIG    1        6.855  -1.496  -0.863  0.00  0.00    -0.003 C 
ATOM     25  C   LIG    1        7.915  -0.569  -0.283  0.00  0.00    +0.004 C 
ENDBRANCH  23  24
ENDBRANCH  22  23
ENDBRANCH  21  22
ENDBRANCH  20  21
ENDBRANCH  19  20
ENDBRANCH  18  19
ENDBRANCH  17  18
ENDBRANCH   4  17
TORSDOF 11
