REMARK  Name = molecules/QURWXBZNHXJZBE-SKXRKSCCSA-N.pdb
REMARK                            x       y       z     vdW  Elec       q    Type
REMARK                         _______ _______ _______ _____ _____    ______ ____
ROOT
ATOM      1  C   UNK A  6        0.911   0.021   1.167  0.00  0.00    +0.164 C 
ENDROOT
BRANCH   1   2
ATOM      2  N   UNK A  6       -0.144  -0.912   1.415  0.00  0.00    -0.302 N 
ATOM      3  C   GLY A  5        0.046  -2.307   1.614  0.00  0.00    +0.231 C 
ATOM      4  O   GLY A  5        1.130  -2.897   1.610  0.00  0.00    -0.274 OA
ATOM      5  H   UNK A  6       -1.115  -0.528   1.461  0.00  0.00    +0.150 HD
BRANCH   3   6
ATOM      6  CA  GLY A  5       -1.171  -3.127   1.851  0.00  0.00    +0.200 C 
BRANCH   6   7
ATOM      7  N   GLY A  5       -2.406  -2.382   1.839  0.00  0.00    -0.305 N 
ATOM      8  H   GLY A  5       -1.928  -1.704   2.912  0.00  0.00    +0.149 HD
ATOM      9  C   HYP A  4       -3.518  -1.701   1.840  0.00  0.00    +0.234 C 
ATOM     10  O   HYP A  4       -3.813  -0.733   2.611  0.00  0.00    -0.274 OA
BRANCH   9  11
ATOM     11  CA  HYP A  4       -4.636  -2.009   0.837  0.00  0.00    +0.164 C 
ATOM     12  N   HYP A  4       -5.652  -1.023   0.788  0.00  0.00    -0.286 N 
ATOM     13  C   PRO A  3       -6.224  -0.123   1.721  0.00  0.00    +0.237 C 
ATOM     14  O   PRO A  3       -6.062  -0.239   2.967  0.00  0.00    -0.274 OA
ATOM     15  CD  HYP A  4       -6.082  -0.993  -0.630  0.00  0.00    +0.140 C 
ATOM     16  CG  HYP A  4       -4.703  -0.940  -1.288  0.00  0.00    +0.134 C 
ATOM     17  CB  HYP A  4       -3.971  -2.035  -0.529  0.00  0.00    +0.065 C 
BRANCH  13  18
ATOM     18  CA  PRO A  3       -7.058   1.046   1.297  0.00  0.00    +0.162 C 
ATOM     19  CB  PRO A  3       -6.391   2.324   1.825  0.00  0.00    +0.033 C 
ATOM     20  CG  PRO A  3       -7.384   2.917   2.776  0.00  0.00    +0.021 C 
ATOM     21  CD  PRO A  3       -8.239   1.727   3.146  0.00  0.00    +0.109 C 
ATOM     22  N   PRO A  3       -8.384   1.061   1.820  0.00  0.00    -0.288 N 
ATOM     23  C   ARG A  2       -9.652   0.610   1.380  0.00  0.00    +0.237 C 
ATOM     24  O   ARG A  2      -10.608   0.792   2.253  0.00  0.00    -0.274 OA
BRANCH  23  25
ATOM     25  CA  ARG A  2      -10.023  -0.011   0.127  0.00  0.00    +0.159 C 
BRANCH  25  26
ATOM     26  N   ARG A  2      -11.400  -0.514   0.255  0.00  0.00    -0.303 N 
ATOM     27  H   ARG A  2      -12.078   0.333   0.487  0.00  0.00    +0.149 HD
ATOM     28  C   ARG A  1      -11.986  -1.737   0.178  0.00  0.00    +0.230 C 
ATOM     29  O   ARG A  1      -11.400  -2.803  -0.010  0.00  0.00    -0.274 OA
BRANCH  28  30
ATOM     30  CA  ARG A  1      -13.520  -1.835   0.319  0.00  0.00    +0.138 C 
BRANCH  30  31
ATOM     31  N   ARG A  1      -13.859  -3.206   0.056  0.00  0.00    -0.320 NA
ATOM     32  H1  ARG A  1      -13.607  -3.813   0.884  0.00  0.00    +0.119 HD
ATOM     33  H2  ARG A  1      -13.303  -3.563  -0.747  0.00  0.00    +0.119 HD
ENDBRANCH  30  31
BRANCH  30  34
ATOM     34  CB  ARG A  1      -14.125  -0.924  -0.687  0.00  0.00    +0.031 C 
BRANCH  34  35
ATOM     35  CG  ARG A  1      -15.599  -0.877  -0.719  0.00  0.00    +0.039 C 
BRANCH  35  36
ATOM     36  CD  ARG A  1      -16.236  -2.203  -1.019  0.00  0.00    +0.196 C 
BRANCH  36  37
ATOM     37  NE  ARG A  1      -17.696  -2.018  -1.106  0.00  0.00    -0.276 N 
ATOM     38  HE  ARG A  1      -18.128  -2.142  -2.044  0.00  0.00    +0.258 HD
BRANCH  37  39
ATOM     39  CZ  ARG A  1      -18.488  -1.692  -0.004  0.00  0.00    +0.376 C 
ATOM     40  NH2 ARG A  1      -18.131  -2.000   1.330  0.00  0.00    -0.289 N 
ATOM     41 HH21 ARG A  1      -18.702  -1.657   2.161  0.00  0.00    +0.255 HD
ATOM     42 HH22 ARG A  1      -17.295  -2.591   1.563  0.00  0.00    +0.255 HD
BRANCH  39  43
ATOM     43  NH1 ARG A  1      -19.624  -1.082  -0.206  0.00  0.00    -0.130 NA
ATOM     44  HH1 ARG A  1      -19.931  -0.847  -1.161  0.00  0.00    +0.306 HD
ENDBRANCH  39  43
ENDBRANCH  37  39
ENDBRANCH  36  37
ENDBRANCH  35  36
ENDBRANCH  34  35
ENDBRANCH  30  34
ENDBRANCH  28  30
ENDBRANCH  25  26
BRANCH  25  45
ATOM     45  CB  ARG A  2      -10.197   0.893  -1.072  0.00  0.00    +0.035 C 
BRANCH  45  46
ATOM     46  CG  ARG A  2       -9.150   1.714  -1.601  0.00  0.00    +0.039 C 
BRANCH  46  47
ATOM     47  CD  ARG A  2       -9.537   2.473  -2.888  0.00  0.00    +0.196 C 
BRANCH  47  48
ATOM     48  NE  ARG A  2      -10.712   3.275  -2.795  0.00  0.00    -0.276 N 
ATOM     49  HE  ARG A  2      -10.648   4.309  -2.743  0.00  0.00    +0.258 HD
BRANCH  48  50
ATOM     50  CZ  ARG A  2      -12.007   2.687  -2.769  0.00  0.00    +0.376 C 
ATOM     51  NH2 ARG A  2      -13.011   3.181  -1.923  0.00  0.00    -0.289 N 
ATOM     52 HH21 ARG A  2      -12.730   3.554  -1.001  0.00  0.00    +0.255 HD
ATOM     53 HH22 ARG A  2      -14.001   3.178  -2.190  0.00  0.00    +0.255 HD
BRANCH  50  54
ATOM     54  NH1 ARG A  2      -12.246   1.657  -3.556  0.00  0.00    -0.130 NA
ATOM     55  HH1 ARG A  2      -13.219   1.216  -3.542  0.00  0.00    +0.306 HD
ENDBRANCH  50  54
ENDBRANCH  48  50
ENDBRANCH  47  48
ENDBRANCH  46  47
ENDBRANCH  45  46
ENDBRANCH  25  45
ENDBRANCH  23  25
ENDBRANCH  13  18
BRANCH  16  56
ATOM     56  OD  HYP A  4       -4.892  -1.293  -2.626  0.00  0.00    -0.390 OA
ATOM     57  HD  HYP A  4       -4.557  -0.499  -3.163  0.00  0.00    +0.210 HD
ENDBRANCH  16  56
ENDBRANCH   9  11
ENDBRANCH   6   7
ENDBRANCH   3   6
ENDBRANCH   1   2
BRANCH   1  60
ATOM     58  N   SER A  7        3.100   0.353  -0.021  0.00  0.00    -0.301 N 
ATOM     59  H   SER A  7        3.127   1.302   0.324  0.00  0.00    +0.150 HD
ATOM     60  C   UNK A  6        1.992  -0.510   0.295  0.00  0.00    +0.234 C 
ATOM     61  O   UNK A  6        2.064  -1.642  -0.213  0.00  0.00    -0.274 OA
BRANCH  58  62
ATOM     62  CA  SER A  7        4.234  -0.113  -0.865  0.00  0.00    +0.185 C 
BRANCH  62  73
ATOM     63  C   UNK A  8        7.550   1.317   0.556  0.00  0.00    +0.167 C 
ATOM     64  C   UNK A  8        8.213   2.619   0.310  0.00  0.00    +0.067 C 
ATOM     65  C   UNK A  8        8.595   2.883  -1.086  0.00  0.00    -0.040 A 
ATOM     66  C   UNK A  8        9.630   3.779  -1.308  0.00  0.00    +0.004 A 
ATOM     67  C   UNK A  8       10.012   4.050  -2.622  0.00  0.00    +0.000 A 
ATOM     68  C   UNK A  8        9.380   3.444  -3.659  0.00  0.00    +0.000 A 
ATOM     69  C   UNK A  8        8.361   2.562  -3.424  0.00  0.00    +0.005 A 
ATOM     70  C   UNK A  8        7.989   2.298  -2.136  0.00  0.00    -0.027 A 
ATOM     71  C   UNK A  8        6.893   1.307  -1.916  0.00  0.00    +0.144 C 
ATOM     72  N   UNK A  8        6.618   0.997  -0.545  0.00  0.00    -0.284 N 
ATOM     73  C   SER A  7        5.394   0.379  -0.180  0.00  0.00    +0.239 C 
ATOM     74  O   SER A  7        5.333   0.232   1.148  0.00  0.00    -0.273 OA
BRANCH  63  77
ATOM     75  C   UNK A  9        9.425  -2.026   1.385  0.00  0.00    +0.163 C 
ATOM     76  N   UNK A  9        8.657  -1.046   0.595  0.00  0.00    -0.285 N 
ATOM     77  C   UNK A  8        8.334   0.222   1.074  0.00  0.00    +0.237 C 
ATOM     78  O   UNK A  8        8.849   0.484   2.255  0.00  0.00    -0.274 OA
ATOM     79  C   UNK A  9        8.372  -1.637  -0.684  0.00  0.00    +0.080 C 
ATOM     80  C   UNK A  9        8.414  -3.143  -0.415  0.00  0.00    +0.012 C 
ATOM     81  C   UNK A  9        8.510  -3.960  -1.644  0.00  0.00    +0.005 C 
ATOM     82  C   UNK A  9        9.495  -3.501  -2.669  0.00  0.00    +0.000 C 
ATOM     83  C   UNK A  9        9.246  -2.040  -2.973  0.00  0.00    +0.002 C 
ATOM     84  C   UNK A  9        9.445  -1.268  -1.687  0.00  0.00    +0.023 C 
ATOM     85  C   UNK A  9        9.624  -3.201   0.487  0.00  0.00    +0.037 C 
BRANCH  75  87
ATOM     86  N   ARG A 10       11.416  -0.423   1.391  0.00  0.00    -0.301 N 
ATOM     87  C   UNK A  9       10.691  -1.514   1.882  0.00  0.00    +0.234 C 
ATOM     88  O   UNK A  9       11.201  -2.131   2.889  0.00  0.00    -0.274 OA
ATOM     89  H   ARG A 10       11.021   0.085   0.544  0.00  0.00    +0.150 HD
BRANCH  86  90
ATOM     90  CA  ARG A 10       12.655   0.096   1.906  0.00  0.00    +0.182 C 
BRANCH  90  91
ATOM     91  C   ARG A 10       12.675   1.562   1.971  0.00  0.00    +0.325 C 
ATOM     92  O   ARG A 10       11.756   2.323   1.590  0.00  0.00    -0.249 OA
BRANCH  91  93
ATOM     93  OXT ARG A 10       13.823   2.219   2.513  0.00  0.00    -0.479 OA
ATOM     94  HXT ARG A 10       14.002   3.167   2.219  0.00  0.00    +0.295 HD
ENDBRANCH  91  93
ENDBRANCH  90  91
BRANCH  90  95
ATOM     95  CB  ARG A 10       13.841  -0.576   1.328  0.00  0.00    +0.037 C 
BRANCH  95  96
ATOM     96  CG  ARG A 10       13.997  -0.507  -0.147  0.00  0.00    +0.039 C 
BRANCH  96  97
ATOM     97  CD  ARG A 10       14.166   0.831  -0.750  0.00  0.00    +0.196 C 
BRANCH  97  98
ATOM     98  NE  ARG A 10       15.340   1.494  -0.244  0.00  0.00    -0.276 N 
ATOM     99  HE  ARG A 10       15.249   2.367   0.314  0.00  0.00    +0.258 HD
BRANCH  98 100
ATOM    100  CZ  ARG A 10       16.620   0.967  -0.523  0.00  0.00    +0.376 C 
ATOM    101  NH2 ARG A 10       17.300   0.239   0.480  0.00  0.00    -0.289 N 
ATOM    102 HH21 ARG A 10       17.648   0.803   1.310  0.00  0.00    +0.255 HD
ATOM    103 HH22 ARG A 10       17.480  -0.769   0.499  0.00  0.00    +0.255 HD
BRANCH 100 104
ATOM    104  NH1 ARG A 10       17.146   1.152  -1.668  0.00  0.00    -0.130 NA
ATOM    105  HH1 ARG A 10       16.677   1.685  -2.436  0.00  0.00    +0.306 HD
ENDBRANCH 100 104
ENDBRANCH  98 100
ENDBRANCH  97  98
ENDBRANCH  96  97
ENDBRANCH  95  96
ENDBRANCH  90  95
ENDBRANCH  86  90
ENDBRANCH  75  87
ENDBRANCH  63  77
ENDBRANCH  62  73
BRANCH  62 106
ATOM    106  CB  SER A  7        3.925   0.127  -2.283  0.00  0.00    +0.187 C 
BRANCH 106 107
ATOM    107  OG  SER A  7        4.800  -0.331  -3.234  0.00  0.00    -0.393 OA
ATOM    108  H   SER A  7        4.425  -0.921  -3.912  0.00  0.00    +0.209 HD
ENDBRANCH 106 107
ENDBRANCH  62 106
ENDBRANCH  58  62
ENDBRANCH   1  60
BRANCH   1 109
ATOM    109  C   UNK A  6        1.459   0.468   2.513  0.00  0.00    +0.074 C 
BRANCH 109 110
ATOM    110  C   UNK A  6        0.318   1.013   3.346  0.00  0.00    -0.008 A 
ATOM    111  C   UNK A  6       -0.549   0.402   4.161  0.00  0.00    +0.011 A 
ATOM    112  C   UNK A  6       -1.505   1.127   4.751  0.00  0.00    +0.008 A 
ATOM    113  C   UNK A  6       -1.537   2.466   4.485  0.00  0.00    +0.045 A 
ATOM    114  S   UNK A  6       -0.206   2.669   3.400  0.00  0.00    -0.102 S 
ENDBRANCH 109 110
ENDBRANCH   1 109
TORSDOF 40
