REMARK  Name = molecules/QVFWZNCVPCJQOP-NTSWFWBYSA-N.pdb
REMARK                            x       y       z     vdW  Elec       q    Type
REMARK                         _______ _______ _______ _____ _____    ______ ____
ROOT
ATOM      1  C   LIG    1        0.468   0.846  -0.419  0.00  0.00    +0.121 C 
ATOM      2  C   LIG    1        1.030   1.692  -1.580  0.00  0.00    +0.038 C 
ENDROOT
BRANCH   1   3
ATOM      3  O   LIG    1        1.129  -0.370  -0.528  0.00  0.00    -0.344 OA
BRANCH   3   4
ATOM      4  C   LIG    1        1.988  -0.535   0.540  0.00  0.00    +0.299 C 
BRANCH   4   5
ATOM      5  C   LIG    1        3.452  -0.634   0.095  0.00  0.00    +0.241 C 
ATOM      6 CL   LIG    1        4.382  -0.933   1.598  0.00  0.00    -0.078 Cl
ATOM      7 CL   LIG    1        4.035   0.849  -0.648  0.00  0.00    -0.078 Cl
ATOM      8 CL   LIG    1        3.678  -2.013  -0.992  0.00  0.00    -0.078 Cl
ENDBRANCH   4   5
BRANCH   4   9
ATOM      9  O   LIG    1        1.720  -1.672   1.305  0.00  0.00    -0.364 OA
ATOM     10  H   LIG    1        1.218  -1.426   2.110  0.00  0.00    +0.213 HD
ENDBRANCH   4   9
ENDBRANCH   3   4
ENDBRANCH   1   3
BRANCH   1  11
ATOM     11  C   LIG    1       -0.997   0.811  -0.590  0.00  0.00    +0.065 C 
BRANCH  11  12
ATOM     12  C   LIG    1       -1.793  -0.017   0.349  0.00  0.00    +0.063 C 
ATOM     13  C   LIG    1       -1.421  -1.479   0.279  0.00  0.00    +0.041 C 
ATOM     14  C   LIG    1       -3.293   0.097   0.008  0.00  0.00    +0.041 C 
BRANCH  12  15
ATOM     15  O   LIG    1       -1.700   0.397   1.675  0.00  0.00    -0.389 OA
ATOM     16  H   LIG    1       -2.361  -0.157   2.179  0.00  0.00    +0.210 HD
ENDBRANCH  12  15
ENDBRANCH  11  12
ENDBRANCH   1  11
TORSDOF 7
