REMARK  Name = molecules/QVNNONOFASOXQV-UHFFFAOYSA-N.pdb
REMARK                            x       y       z     vdW  Elec       q    Type
REMARK                         _______ _______ _______ _____ _____    ______ ____
ROOT
ATOM      1  C   LIG    1       -0.489  -0.117   0.236  0.00  0.00    +0.130 A 
ATOM      2  C   LIG    1       -0.793   1.215   0.430  0.00  0.00    -0.003 A 
ATOM      3  C   LIG    1       -2.093   1.532   0.758  0.00  0.00    +0.007 A 
ATOM      4  C   LIG    1       -3.096   0.582   0.899  0.00  0.00    +0.001 A 
ATOM      5  C   LIG    1       -2.798  -0.748   0.707  0.00  0.00    +0.007 A 
ATOM      6  C   LIG    1       -1.499  -1.078   0.378  0.00  0.00    -0.003 A 
ENDROOT
BRANCH   2   7
ATOM      7  C   LIG    1        0.223   2.293   0.286  0.00  0.00    +0.016 C 
ATOM      8  C   LIG    1       -0.315   3.609   0.836  0.00  0.00    +0.012 C 
ATOM      9  C   LIG    1        0.502   2.561  -1.198  0.00  0.00    +0.012 C 
ENDBRANCH   2   7
BRANCH   6  10
ATOM     10  C   LIG    1       -1.216  -2.519   0.171  0.00  0.00    +0.016 C 
ATOM     11  C   LIG    1       -2.402  -3.391   0.537  0.00  0.00    +0.012 C 
ATOM     12  C   LIG    1       -0.919  -2.785  -1.309  0.00  0.00    +0.012 C 
ENDBRANCH   6  10
BRANCH   1  13
ATOM     13  O   LIG    1        0.789  -0.505  -0.092  0.00  0.00    -0.465 OA
BRANCH  13  14
ATOM     14  C   LIG    1        1.835  -0.833   0.757  0.00  0.00    +0.406 C 
BRANCH  14  15
ATOM     15  O   LIG    1        2.999  -1.201   0.042  0.00  0.00    -0.249 OA
BRANCH  15  16
ATOM     16  P   LIG    1        3.543   0.045  -0.953  0.00  0.00    +0.475 P 
ATOM     17  O   LIG    1        2.619   0.284  -2.122  0.00  0.00    -0.227 OA
BRANCH  16  18
ATOM     18  O   LIG    1        3.733   1.493  -0.115  0.00  0.00    -0.303 OA
ATOM     19  H   LIG    1        4.667   1.749   0.018  0.00  0.00    +0.222 HD
ENDBRANCH  16  18
BRANCH  16  20
ATOM     20  O   LIG    1        5.024  -0.444  -1.606  0.00  0.00    -0.303 OA
ATOM     21  H   LIG    1        5.395  -1.246  -1.171  0.00  0.00    +0.222 HD
ENDBRANCH  16  20
ENDBRANCH  15  16
ENDBRANCH  14  15
ENDBRANCH  13  14
ENDBRANCH   1  13
TORSDOF 8
