REMARK  Name = molecules/QVYRGXJJSLMXQH-GOSISDBHSA-N.pdb
REMARK                            x       y       z     vdW  Elec       q    Type
REMARK                         _______ _______ _______ _____ _____    ______ ____
ROOT
ATOM      1  C   LIG    1       -0.303  -0.580   0.080  0.00  0.00    +0.179 C 
ENDROOT
BRANCH   1   2
ATOM      2  C   LIG    1       -0.573   0.764   0.501  0.00  0.00    -0.012 A 
ATOM      3  C   LIG    1       -0.129   1.190   1.765  0.00  0.00    +0.007 A 
ATOM      4  C   LIG    1       -0.354   2.443   2.259  0.00  0.00    +0.000 A 
ATOM      5  C   LIG    1       -1.054   3.370   1.505  0.00  0.00    +0.000 A 
ATOM      6  C   LIG    1       -1.501   2.982   0.264  0.00  0.00    +0.004 A 
ATOM      7  C   LIG    1       -1.263   1.689  -0.234  0.00  0.00    -0.044 A 
ATOM      8  C   LIG    1       -1.749   1.317  -1.561  0.00  0.00    +0.044 C 
ENDBRANCH   1   2
BRANCH   1   9
ATOM      9  C   LIG    1       -1.429  -1.542   0.261  0.00  0.00    -0.014 A 
ATOM     10  C   LIG    1       -1.674  -2.092   1.500  0.00  0.00    +0.006 A 
ATOM     11  C   LIG    1       -2.709  -3.006   1.701  0.00  0.00    +0.000 A 
ATOM     12  C   LIG    1       -3.494  -3.356   0.624  0.00  0.00    +0.000 A 
ATOM     13  C   LIG    1       -3.251  -2.808  -0.618  0.00  0.00    +0.000 A 
ATOM     14  C   LIG    1       -2.223  -1.911  -0.779  0.00  0.00    +0.006 A 
ENDBRANCH   1   9
BRANCH   1  15
ATOM     15  O   LIG    1        0.303  -0.771  -1.160  0.00  0.00    -0.366 OA
BRANCH  15  16
ATOM     16  C   LIG    1        1.495  -1.403  -1.162  0.00  0.00    +0.176 C 
BRANCH  16  17
ATOM     17  C   LIG    1        2.694  -0.797  -0.567  0.00  0.00    +0.112 C 
BRANCH  17  18
ATOM     18  N   LIG    1        3.205   0.407  -1.083  0.00  0.00    -0.306 NA
ATOM     19  C   LIG    1        4.393   0.761  -0.296  0.00  0.00    +0.104 C 
ATOM     20  C   LIG    1        2.285   1.491  -1.019  0.00  0.00    +0.104 C 
ENDBRANCH  17  18
ENDBRANCH  16  17
ENDBRANCH  15  16
ENDBRANCH   1  15
TORSDOF 6
