REMARK  Name = molecules/QVZCXCJXTMIDME-UHFFFAOYSA-N.pdb
REMARK                            x       y       z     vdW  Elec       q    Type
REMARK                         _______ _______ _______ _____ _____    ______ ____
ROOT
ATOM      1  N   LIG    1       -1.798  -0.741  -1.394  0.00  0.00    -0.301 NA
ATOM      2  C   LIG    1       -1.099   0.470  -1.237  0.00  0.00    +0.085 C 
ATOM      3  C   LIG    1       -0.452   0.583   0.112  0.00  0.00    +0.031 C 
ATOM      4  C   LIG    1        0.082  -0.724   0.614  0.00  0.00    +0.085 C 
ATOM      5  N   LIG    1        0.924  -1.307  -0.388  0.00  0.00    -0.301 NA
ATOM      6  C   LIG    1        0.318  -1.875  -1.523  0.00  0.00    +0.099 C 
ATOM      7  C   LIG    1       -1.200  -1.978  -1.291  0.00  0.00    +0.099 C 
ENDROOT
BRANCH   1   8
ATOM      8  C   LIG    1       -3.058  -0.658  -1.972  0.00  0.00    +0.088 C 
BRANCH   8   9
ATOM      9  C   LIG    1       -4.317  -1.052  -1.393  0.00  0.00    +0.056 C 
BRANCH   9  10
ATOM     10  C   LIG    1       -4.574  -0.250  -0.057  0.00  0.00    +0.234 C 
BRANCH  10  11
ATOM     11  O   LIG    1       -5.747  -0.192   0.233  0.00  0.00    -0.461 OA
BRANCH  11  12
ATOM     12  C   LIG    1       -7.085  -0.183   0.564  0.00  0.00    +0.339 C 
ATOM     13  O   LIG    1       -7.484  -1.381   0.756  0.00  0.00    -0.245 OA
BRANCH  12  14
ATOM     14  C   LIG    1       -7.891   1.026   0.637  0.00  0.00    +0.066 A 
ATOM     15  C   LIG    1       -7.388   2.224   0.899  0.00  0.00    +0.064 A 
ATOM     16  C   LIG    1       -7.997   3.436   0.687  0.00  0.00    +0.166 A 
ATOM     17  C   LIG    1       -9.233   3.474   0.162  0.00  0.00    +0.204 A 
ATOM     18  C   LIG    1       -9.830   2.288  -0.125  0.00  0.00    +0.166 A 
ATOM     19  C   LIG    1       -9.257   1.018   0.070  0.00  0.00    +0.064 A 
BRANCH  17  20
ATOM     20  O   LIG    1       -9.870   4.713  -0.079  0.00  0.00    -0.488 OA
ATOM     21  C   LIG    1       -9.104   5.561  -0.944  0.00  0.00    +0.277 C 
ENDBRANCH  17  20
BRANCH  18  22
ATOM     22  O   LIG    1      -11.143   2.281  -0.669  0.00  0.00    -0.491 OA
ATOM     23  C   LIG    1      -11.800   1.025  -0.869  0.00  0.00    +0.277 C 
ENDBRANCH  18  22
BRANCH  16  24
ATOM     24  O   LIG    1       -7.361   4.634   0.999  0.00  0.00    -0.491 OA
ATOM     25  C   LIG    1       -6.059   4.547   1.544  0.00  0.00    +0.277 C 
ENDBRANCH  16  24
ENDBRANCH  12  14
ENDBRANCH  11  12
ENDBRANCH  10  11
ENDBRANCH   9  10
ENDBRANCH   8   9
ENDBRANCH   1   8
BRANCH   5  26
ATOM     26  C   LIG    1        1.852  -2.168   0.244  0.00  0.00    +0.088 C 
BRANCH  26  27
ATOM     27  C   LIG    1        3.208  -2.191  -0.286  0.00  0.00    +0.056 C 
BRANCH  27  28
ATOM     28  C   LIG    1        3.884  -0.840  -0.022  0.00  0.00    +0.234 C 
BRANCH  28  29
ATOM     29  O   LIG    1        5.267  -1.060  -0.278  0.00  0.00    -0.461 OA
BRANCH  29  30
ATOM     30  C   LIG    1        6.180  -0.032   0.158  0.00  0.00    +0.339 C 
ATOM     31  O   LIG    1        5.839   0.995   0.624  0.00  0.00    -0.245 OA
BRANCH  30  32
ATOM     32  C   LIG    1        7.610  -0.483  -0.014  0.00  0.00    +0.066 A 
ATOM     33  C   LIG    1        8.566   0.225   0.662  0.00  0.00    +0.064 A 
ATOM     34  C   LIG    1        9.807  -0.284   0.824  0.00  0.00    +0.166 A 
ATOM     35  C   LIG    1       10.124  -1.515   0.316  0.00  0.00    +0.204 A 
ATOM     36  C   LIG    1        9.172  -2.272  -0.396  0.00  0.00    +0.166 A 
ATOM     37  C   LIG    1        7.915  -1.704  -0.536  0.00  0.00    +0.064 A 
BRANCH  34  38
ATOM     38  O   LIG    1       10.876   0.367   1.507  0.00  0.00    -0.491 OA
ATOM     39  C   LIG    1       10.535   1.766   1.752  0.00  0.00    +0.277 C 
ENDBRANCH  34  38
BRANCH  35  40
ATOM     40  O   LIG    1       11.381  -2.133   0.466  0.00  0.00    -0.488 OA
ATOM     41  C   LIG    1       11.497  -3.137   1.505  0.00  0.00    +0.277 C 
ENDBRANCH  35  40
BRANCH  36  42
ATOM     42  O   LIG    1        9.502  -3.488  -0.931  0.00  0.00    -0.491 OA
ATOM     43  C   LIG    1        8.701  -4.188  -1.764  0.00  0.00    +0.277 C 
ENDBRANCH  36  42
ENDBRANCH  30  32
ENDBRANCH  29  30
ENDBRANCH  28  29
ENDBRANCH  27  28
ENDBRANCH  26  27
ENDBRANCH   5  26
TORSDOF 18
