REMARK  Name = molecules/QWGDMFLQWFTERH-UHFFFAOYSA-N.pdb
REMARK                            x       y       z     vdW  Elec       q    Type
REMARK                         _______ _______ _______ _____ _____    ______ ____
ROOT
ATOM      1 CL   LIG    1       -0.962   4.206  -2.426  0.00  0.00    -0.084 Cl
ATOM      2  C   LIG    1        0.113   3.169  -1.507  0.00  0.00    +0.042 A 
ATOM      3  C   LIG    1       -0.323   1.959  -1.049  0.00  0.00    +0.039 A 
ATOM      4  C   LIG    1        0.517   1.141  -0.326  0.00  0.00    +0.109 A 
ATOM      5  C   LIG    1       -0.147  -0.118   0.074  0.00  0.00    +0.325 C 
ATOM      6  N   LIG    1        0.457  -1.187   0.473  0.00  0.00    -0.038 NA
ATOM      7  C   LIG    1        1.836  -1.457   0.636  0.00  0.00    +0.218 A 
ATOM      8  C   LIG    1        2.154  -2.792   0.729  0.00  0.00    +0.059 A 
ATOM      9  C   LIG    1        3.453  -3.227   0.891  0.00  0.00    +0.004 A 
ATOM     10  C   LIG    1        4.454  -2.290   0.962  0.00  0.00    +0.004 A 
ATOM     11  C   LIG    1        4.184  -0.940   0.875  0.00  0.00    +0.051 A 
ATOM     12  C   LIG    1        2.856  -0.538   0.710  0.00  0.00    +0.179 A 
ATOM     13  O   LIG    1        2.791   0.861   0.644  0.00  0.00    -0.451 OA
ATOM     14  C   LIG    1        1.818   1.569  -0.071  0.00  0.00    +0.144 A 
ATOM     15  C   LIG    1        2.228   2.794  -0.545  0.00  0.00    +0.048 A 
ATOM     16  C   LIG    1        1.401   3.626  -1.270  0.00  0.00    +0.023 A 
ENDROOT
BRANCH   5  17
ATOM     17  N   LIG    1       -1.561  -0.122   0.003  0.00  0.00    -0.218 N 
ATOM     18  C   LIG    1       -2.411   0.503   0.983  0.00  0.00    +0.241 C 
ATOM     19  C   LIG    1       -3.630  -0.324   1.305  0.00  0.00    +0.124 C 
ATOM     20  N   LIG    1       -4.245  -0.903   0.148  0.00  0.00    -0.309 NA
ATOM     21  H   LIG    1       -4.045  -1.948   0.190  0.00  0.00    +0.122 HD
ATOM     22  C   LIG    1       -3.675  -0.446  -1.099  0.00  0.00    +0.124 C 
ATOM     23  C   LIG    1       -2.204  -0.783  -1.105  0.00  0.00    +0.241 C 
ENDBRANCH   5  17
TORSDOF 1
