REMARK  Name = molecules/QWNNFYQUBPILCG-UHFFFAOYSA-N.pdb
REMARK                            x       y       z     vdW  Elec       q    Type
REMARK                         _______ _______ _______ _____ _____    ______ ____
ROOT
ATOM      1  C   LIG    1       -1.464  -0.987   0.579  0.00  0.00    +0.040 A 
ATOM      2  C   LIG    1       -2.454  -0.036   0.446  0.00  0.00    +0.043 A 
ATOM      3  C   LIG    1       -3.751  -0.368   0.090  0.00  0.00    +0.124 A 
ATOM      4  C   LIG    1       -4.023  -1.706  -0.130  0.00  0.00    +0.067 A 
ATOM      5  C   LIG    1       -3.030  -2.657   0.004  0.00  0.00    +0.023 A 
ATOM      6 CL   LIG    1       -5.664  -2.157  -0.584  0.00  0.00    -0.082 Cl
ATOM      7  C   LIG    1       -1.743  -2.332   0.356  0.00  0.00    +0.014 A 
ENDROOT
BRANCH   1   8
ATOM      8  C   LIG    1       -0.097  -0.635   0.945  0.00  0.00    +0.260 C 
ATOM      9  O   LIG    1        0.427  -1.364   1.857  0.00  0.00    -0.269 OA
ATOM     10  N   LIG    1        0.635   0.430   0.354  0.00  0.00    -0.230 N 
ATOM     11  H   LIG    1        0.189   0.990  -0.379  0.00  0.00    +0.173 HD
BRANCH  10  12
ATOM     12  N   LIG    1        1.934   0.659   0.799  0.00  0.00    -0.254 N 
ATOM     13  C   LIG    1        2.117   1.057   2.201  0.00  0.00    +0.154 C 
BRANCH  12  14
ATOM     14  C   LIG    1        3.086   0.537  -0.024  0.00  0.00    +0.047 A 
ATOM     15  C   LIG    1        4.341   0.824   0.506  0.00  0.00    +0.025 A 
ATOM     16  C   LIG    1        5.479   0.710  -0.272  0.00  0.00    +0.002 A 
ATOM     17  C   LIG    1        5.429   0.313  -1.589  0.00  0.00    +0.000 A 
ATOM     18  C   LIG    1        4.194   0.025  -2.129  0.00  0.00    +0.002 A 
ATOM     19  C   LIG    1        3.043   0.141  -1.339  0.00  0.00    +0.025 A 
ENDBRANCH  12  14
ENDBRANCH  10  12
ENDBRANCH   1   8
BRANCH   3  20
ATOM     20  S   LIG    1       -5.005   0.841  -0.065  0.00  0.00    +0.057 S 
ATOM     21  O   LIG    1       -6.124   0.581   0.931  0.00  0.00    -0.153 OA
ATOM     22  O   LIG    1       -4.445   2.193   0.197  0.00  0.00    -0.153 OA
BRANCH  20  23
ATOM     23  N   LIG    1       -5.648   0.846  -1.681  0.00  0.00    -0.203 NA
ATOM     24  H   LIG    1       -6.144   1.777  -1.824  0.00  0.00    +0.144 HD
ATOM     25  H   LIG    1       -4.809   0.854  -2.326  0.00  0.00    +0.144 HD
ENDBRANCH  20  23
ENDBRANCH   3  20
TORSDOF 5
