REMARK  Name = molecules/QXDAEKSDNVPFJG-UHFFFAOYSA-N.pdb
REMARK                            x       y       z     vdW  Elec       q    Type
REMARK                         _______ _______ _______ _____ _____    ______ ____
ROOT
ATOM      1  N   LIG    1       -1.081  -1.339   0.526  0.00  0.00    -0.047 NA
ATOM      2  C   LIG    1       -0.244  -1.131  -0.411  0.00  0.00    +0.289 C 
ATOM      3  C   LIG    1       -0.554  -0.128  -1.450  0.00  0.00    +0.145 C 
ENDROOT
BRANCH   1   4
ATOM      4  C   LIG    1       -2.305  -0.573   0.520  0.00  0.00    +0.176 A 
ATOM      5  C   LIG    1       -2.495   0.461   1.400  0.00  0.00    +0.059 A 
ATOM      6  C   LIG    1       -3.657   1.183   1.389  0.00  0.00    +0.050 A 
ATOM      7  C   LIG    1       -4.702   0.911   0.493  0.00  0.00    +0.121 A 
ATOM      8  C   LIG    1       -4.467  -0.134  -0.370  0.00  0.00    +0.050 A 
ATOM      9  C   LIG    1       -3.303  -0.873  -0.374  0.00  0.00    +0.059 A 
BRANCH   7  10
ATOM     10  O   LIG    1       -5.850   1.671   0.526  0.00  0.00    -0.492 OA
BRANCH  10  11
ATOM     11  C   LIG    1       -6.910   1.406  -0.354  0.00  0.00    +0.225 C 
ATOM     12  C   LIG    1       -7.521   0.048  -0.215  0.00  0.00    +0.048 C 
ENDBRANCH  10  11
ENDBRANCH   7  10
ENDBRANCH   1   4
BRANCH   2  13
ATOM     13  N   LIG    1        0.979  -1.867  -0.444  0.00  0.00    -0.204 N 
ATOM     14  H   LIG    1        0.968  -2.919  -0.614  0.00  0.00    +0.298 HD
BRANCH  13  15
ATOM     15  C   LIG    1        2.197  -1.183  -0.250  0.00  0.00    +0.119 A 
ATOM     16  C   LIG    1        2.217   0.171  -0.032  0.00  0.00    +0.052 A 
ATOM     17  C   LIG    1        3.429   0.851   0.161  0.00  0.00    +0.049 A 
ATOM     18  C   LIG    1        4.600   0.126   0.126  0.00  0.00    +0.121 A 
ATOM     19  C   LIG    1        4.609  -1.232  -0.091  0.00  0.00    +0.049 A 
ATOM     20  C   LIG    1        3.377  -1.871  -0.279  0.00  0.00    +0.052 A 
BRANCH  18  21
ATOM     21  O   LIG    1        5.797   0.790   0.316  0.00  0.00    -0.492 OA
BRANCH  21  22
ATOM     22  C   LIG    1        7.025   0.092   0.289  0.00  0.00    +0.225 C 
ATOM     23  C   LIG    1        8.155   1.066   0.523  0.00  0.00    +0.048 C 
ENDBRANCH  21  22
ENDBRANCH  18  21
ENDBRANCH  13  15
ENDBRANCH   2  13
TORSDOF 7
