REMARK  Name = molecules/QXHHHPZILQDDPS-HNNXBMFYSA-N.pdb
REMARK                            x       y       z     vdW  Elec       q    Type
REMARK                         _______ _______ _______ _____ _____    ______ ____
ROOT
ATOM      1  C   LIG    1       -0.084  -0.052   0.801  0.00  0.00    +0.170 C 
ENDROOT
BRANCH   1   2
ATOM      2  C   LIG    1       -0.709   0.945  -0.027  0.00  0.00    +0.001 A 
ATOM      3  C   LIG    1       -0.181   2.275  -0.013  0.00  0.00    +0.048 A 
ATOM      4 CL   LIG    1        1.081   2.630   1.142  0.00  0.00    -0.083 Cl
ATOM      5  C   LIG    1       -0.620   3.282  -0.808  0.00  0.00    +0.040 A 
ATOM      6  C   LIG    1       -1.631   3.066  -1.696  0.00  0.00    +0.042 A 
ATOM      7  C   LIG    1       -2.192   1.825  -1.774  0.00  0.00    +0.020 A 
ATOM      8 CL   LIG    1       -2.154   4.405  -2.702  0.00  0.00    -0.083 Cl
ATOM      9  C   LIG    1       -1.718   0.815  -0.945  0.00  0.00    +0.009 A 
ENDBRANCH   1   2
BRANCH   1  10
ATOM     10  O   LIG    1        0.932   0.416   1.619  0.00  0.00    -0.366 OA
BRANCH  10  11
ATOM     11  C   LIG    1        2.133  -0.110   1.601  0.00  0.00    +0.198 C 
BRANCH  11  12
ATOM     12  C   LIG    1        3.010  -0.144   0.387  0.00  0.00    +0.004 A 
ATOM     13  C   LIG    1        4.271  -0.756   0.558  0.00  0.00    +0.083 A 
ATOM     14 CL   LIG    1        4.923  -1.466   2.047  0.00  0.00    -0.075 Cl
ATOM     15  S   LIG    1        4.987  -0.634  -0.970  0.00  0.00    -0.085 S 
ATOM     16  C   LIG    1        3.752   0.162  -1.806  0.00  0.00    +0.047 A 
ATOM     17  C   LIG    1        2.780   0.320  -0.860  0.00  0.00    +0.015 A 
ENDBRANCH  11  12
ENDBRANCH  10  11
ENDBRANCH   1  10
BRANCH   1  18
ATOM     18  C   LIG    1       -0.879  -1.119   1.403  0.00  0.00    +0.159 C 
BRANCH  18  19
ATOM     19  N   LIG    1       -1.951  -1.677   0.682  0.00  0.00    -0.334 N 
ATOM     20  C   LIG    1       -3.288  -1.428   0.788  0.00  0.00    +0.199 A 
ATOM     21  N   LIG    1       -3.951  -2.265  -0.014  0.00  0.00    -0.244 NA
ATOM     22  C   LIG    1       -3.048  -3.039  -0.624  0.00  0.00    +0.130 A 
ATOM     23  C   LIG    1       -1.791  -2.703  -0.215  0.00  0.00    +0.107 A 
ENDBRANCH  18  19
ENDBRANCH   1  18
TORSDOF 6
