REMARK  Name = molecules/QXKHYNVANLEOEG-UHFFFAOYSA-N.pdb
REMARK                            x       y       z     vdW  Elec       q    Type
REMARK                         _______ _______ _______ _____ _____    ______ ____
ROOT
ATOM      1  C   LIG    1       -0.737   0.604  -0.176  0.00  0.00    +0.206 A 
ATOM      2  C   LIG    1       -1.455  -0.567  -0.069  0.00  0.00    +0.180 A 
ATOM      3  O   LIG    1       -2.749  -0.738   0.061  0.00  0.00    -0.459 OA
ATOM      4  C   LIG    1       -3.027  -2.025   0.131  0.00  0.00    +0.196 A 
ATOM      5  C   LIG    1       -1.823  -2.714   0.038  0.00  0.00    +0.050 A 
ATOM      6  C   LIG    1       -0.810  -1.785  -0.090  0.00  0.00    +0.025 A 
ATOM      7  C   LIG    1        0.566  -1.804  -0.221  0.00  0.00    +0.023 A 
ATOM      8  C   LIG    1        1.302  -0.630  -0.331  0.00  0.00    +0.022 A 
ATOM      9  C   LIG    1        2.672  -0.610  -0.463  0.00  0.00    +0.019 A 
ATOM     10  C   LIG    1        3.371   0.588  -0.570  0.00  0.00    +0.092 A 
ATOM     11  C   LIG    1        2.625   1.747  -0.537  0.00  0.00    +0.337 A 
ATOM     12  O   LIG    1        1.320   1.729  -0.411  0.00  0.00    -0.418 OA
ATOM     13  O   LIG    1        3.264   2.851  -0.635  0.00  0.00    -0.245 OA
ATOM     14  C   LIG    1        0.659   0.590  -0.310  0.00  0.00    +0.184 A 
ENDROOT
BRANCH   1  15
ATOM     15  O   LIG    1       -1.379   1.813  -0.155  0.00  0.00    -0.488 OA
ATOM     16  C   LIG    1       -1.656   2.576   0.982  0.00  0.00    +0.277 C 
ENDBRANCH   1  15
TORSDOF 1
