REMARK  Name = molecules/QXLPXWSKPNOQLE-ZCFIWIBFSA-N.pdb
REMARK                            x       y       z     vdW  Elec       q    Type
REMARK                         _______ _______ _______ _____ _____    ______ ____
ROOT
ATOM      1  C   LIG    1       -0.425   0.039  -0.293  0.00  0.00    +0.123 C 
ATOM      2  C   LIG    1       -1.113  -0.556   0.889  0.00  0.00    +0.055 C 
ENDROOT
BRANCH   1   3
ATOM      3  C   LIG    1        1.009   0.376  -0.061  0.00  0.00    +0.044 C 
ATOM      4  C   LIG    1        1.852  -0.794   0.344  0.00  0.00    +0.008 C 
ENDBRANCH   1   3
BRANCH   1   5
ATOM      5  C   LIG    1       -1.109   1.292  -0.682  0.00  0.00    -0.071 C 
ATOM      6  C   LIG    1       -1.649   2.325  -1.002  0.00  0.00    +0.007 C 
ENDBRANCH   1   5
BRANCH   1   7
ATOM      7  O   LIG    1       -0.535  -0.813  -1.385  0.00  0.00    -0.377 OA
ATOM      8  H   LIG    1       -0.730  -1.738  -1.162  0.00  0.00    +0.211 HD
ENDBRANCH   1   7
TORSDOF 3
