REMARK  Name = molecules/QXWYKJLNLSIPIN-JGVFFNPUSA-N.pdb
REMARK                            x       y       z     vdW  Elec       q    Type
REMARK                         _______ _______ _______ _____ _____    ______ ____
ROOT
ATOM      1  C   LIG    1       -1.097   0.552  -0.308  0.00  0.00    +0.172 C 
ENDROOT
BRANCH   1   2
ATOM      2  C   LIG    1        0.350   0.244  -0.209  0.00  0.00    -0.013 A 
ATOM      3  C   LIG    1        1.183   1.057   0.514  0.00  0.00    +0.055 A 
ATOM      4  C   LIG    1        2.530   0.841   0.653  0.00  0.00    +0.159 A 
ATOM      5  C   LIG    1        3.064  -0.262   0.024  0.00  0.00    +0.158 A 
ATOM      6  C   LIG    1        2.255  -1.107  -0.715  0.00  0.00    +0.049 A 
ATOM      7  C   LIG    1        0.892  -0.856  -0.834  0.00  0.00    +0.010 A 
BRANCH   4   8
ATOM      8  O   LIG    1        3.332   1.679   1.387  0.00  0.00    -0.503 OA
ATOM      9  H   LIG    1        3.006   2.495   1.867  0.00  0.00    +0.292 HD
ENDBRANCH   4   8
BRANCH   5  10
ATOM     10  O   LIG    1        4.423  -0.518   0.140  0.00  0.00    -0.503 OA
ATOM     11  H   LIG    1        4.841  -1.318  -0.310  0.00  0.00    +0.292 HD
ENDBRANCH   5  10
ENDBRANCH   1   2
BRANCH   1  12
ATOM     12  O   LIG    1       -1.567   0.421  -1.615  0.00  0.00    -0.385 OA
ATOM     13  H   LIG    1       -0.964  -0.083  -2.198  0.00  0.00    +0.210 HD
ENDBRANCH   1  12
BRANCH   1  14
ATOM     14  CA  LIG    1       -1.937  -0.313   0.600  0.00  0.00    +0.194 C 
BRANCH  14  15
ATOM     15  N   LIG    1       -1.833  -1.688   0.175  0.00  0.00    -0.316 NA
ATOM     16  H1  LIG    1       -2.280  -2.343   0.850  0.00  0.00    +0.119 HD
ATOM     17  H2  LIG    1       -2.182  -1.830  -0.785  0.00  0.00    +0.119 HD
ENDBRANCH  14  15
BRANCH  14  18
ATOM     18  C   LIG    1       -3.340   0.151   0.489  0.00  0.00    +0.325 C 
ATOM     19  O   LIG    1       -4.240  -0.628   0.070  0.00  0.00    -0.249 OA
BRANCH  18  20
ATOM     20  OXT LIG    1       -3.708   1.428   0.833  0.00  0.00    -0.479 OA
ATOM     21  HXT LIG    1       -3.514   2.244   0.249  0.00  0.00    +0.295 HD
ENDBRANCH  18  20
ENDBRANCH  14  18
ENDBRANCH   1  14
TORSDOF 8
