REMARK  Name = molecules/QYKIQEUNHZKYBP-UHFFFAOYSA-N.pdb
REMARK                            x       y       z     vdW  Elec       q    Type
REMARK                         _______ _______ _______ _____ _____    ______ ____
ROOT
ATOM      1  O   LIG    1        0.037   0.426  -0.850  0.00  0.00    -0.472 OA
ENDROOT
BRANCH   1   3
ATOM      2  C   LIG    1       -2.189   0.185  -0.227  0.00  0.00    +0.049 C 
ATOM      3  C   LIG    1       -0.983  -0.312  -0.296  0.00  0.00    +0.187 C 
ENDBRANCH   1   3
BRANCH   1   4
ATOM      4  C   LIG    1        1.274   0.593  -0.301  0.00  0.00    +0.187 C 
ATOM      5  C   LIG    1        1.916  -0.373   0.309  0.00  0.00    +0.049 C 
ENDBRANCH   1   4
TORSDOF 2
