REMARK  Name = molecules/QYQDKDWGWDOFFU-IUODEOHRSA-N.pdb
REMARK                            x       y       z     vdW  Elec       q    Type
REMARK                         _______ _______ _______ _____ _____    ______ ____
ROOT
ATOM      1  CA  LIG    1       -0.072   0.675   0.972  0.00  0.00    +0.123 C 
ATOM      2  N   LIG    1        1.223   1.323   0.730  0.00  0.00    -0.249 N 
ATOM      3  C   LIG    1        2.239   2.157   1.154  0.00  0.00    +0.244 C 
ATOM      4  O   LIG    1        2.412   2.882   2.189  0.00  0.00    -0.273 OA
ATOM      5  CA  LIG    1        3.027   1.871  -0.057  0.00  0.00    +0.191 C 
ATOM      6  C   LIG    1        1.892   1.064  -0.494  0.00  0.00    +0.169 C 
ATOM      7  S   LIG    1        2.101  -0.698  -0.796  0.00  0.00    -0.131 S 
ATOM      8  C   LIG    1        0.748  -1.492   0.034  0.00  0.00    +0.104 C 
ATOM      9  C   LIG    1       -0.281  -0.545   0.626  0.00  0.00    -0.021 C 
ENDROOT
BRANCH   5  10
ATOM     10  N   LIG    1        4.310   1.282   0.216  0.00  0.00    -0.301 N 
ATOM     11  H   LIG    1        4.373   0.386   0.758  0.00  0.00    +0.150 HD
ATOM     12  C   LIG    1        5.489   1.884  -0.249  0.00  0.00    +0.220 C 
ATOM     13  O   LIG    1        5.295   2.964  -0.946  0.00  0.00    -0.275 OA
BRANCH  12  14
ATOM     14  C   LIG    1        6.873   1.507  -0.088  0.00  0.00    +0.151 C 
BRANCH  14  15
ATOM     15  C   LIG    1        7.150   0.021  -0.122  0.00  0.00    +0.059 A 
ATOM     16  C   LIG    1        8.423  -0.428   0.164  0.00  0.00    +0.072 A 
ATOM     17  S   LIG    1        8.208  -2.129   0.041  0.00  0.00    -0.061 S 
ATOM     18  C   LIG    1        6.550  -2.152  -0.352  0.00  0.00    +0.156 A 
ATOM     19  N   LIG    1        6.245  -0.859  -0.374  0.00  0.00    -0.230 NA
BRANCH  18  20
ATOM     20  N   LIG    1        5.683  -3.272  -0.594  0.00  0.00    -0.338 N 
ATOM     21  H   LIG    1        4.744  -3.338  -0.206  0.00  0.00    +0.144 HD
ATOM     22  H   LIG    1        6.064  -4.017  -1.191  0.00  0.00    +0.144 HD
ENDBRANCH  18  20
ENDBRANCH  14  15
ENDBRANCH  12  14
ENDBRANCH   5  10
BRANCH   1  23
ATOM     23  C   LIG    1       -1.086   1.519   1.587  0.00  0.00    +0.351 C 
ATOM     24  O   LIG    1       -2.228   1.129   1.800  0.00  0.00    -0.244 OA
BRANCH  23  25
ATOM     25  OXT LIG    1       -0.826   2.847   1.984  0.00  0.00    -0.476 OA
ATOM     26  HXT LIG    1       -0.337   3.383   1.249  0.00  0.00    +0.295 HD
ENDBRANCH  23  25
ENDBRANCH   1  23
BRANCH   9  27
ATOM     27  C   LIG    1       -1.571  -1.226   0.812  0.00  0.00    +0.111 C 
BRANCH  27  28
ATOM     28  S   LIG    1       -2.306  -1.629  -0.822  0.00  0.00    -0.080 S 
BRANCH  28  29
ATOM     29  C   LIG    1       -2.828  -0.086  -1.567  0.00  0.00    +0.210 A 
ATOM     30  N   LIG    1       -4.084   0.397  -1.491  0.00  0.00    -0.219 N 
ATOM     31  N   LIG    1       -4.027   1.567  -2.098  0.00  0.00    -0.043 NA
ATOM     32  N   LIG    1       -2.818   1.804  -2.530  0.00  0.00    -0.022 NA
ATOM     33  N   LIG    1       -2.047   0.779  -2.208  0.00  0.00    -0.102 NA
BRANCH  30  34
ATOM     34  C   LIG    1       -5.221  -0.265  -0.910  0.00  0.00    +0.163 C 
BRANCH  34  35
ATOM     35  C   LIG    1       -5.376   0.072   0.528  0.00  0.00    +0.107 C 
BRANCH  35  36
ATOM     36  N   LIG    1       -6.466  -0.581   1.174  0.00  0.00    -0.307 NA
ATOM     37  C   LIG    1       -6.258  -1.996   1.283  0.00  0.00    +0.104 C 
ATOM     38  C   LIG    1       -7.740  -0.173   0.717  0.00  0.00    +0.104 C 
ENDBRANCH  35  36
ENDBRANCH  34  35
ENDBRANCH  30  34
ENDBRANCH  28  29
ENDBRANCH  27  28
ENDBRANCH   9  27
TORSDOF 12
