REMARK  Name = molecules/QYSGYZVSCZSLHT-UHFFFAOYSA-N.pdb
REMARK                            x       y       z     vdW  Elec       q    Type
REMARK                         _______ _______ _______ _____ _____    ______ ____
ROOT
ATOM      1  C   LIG    1       -0.120   0.641   0.197  0.00  0.00    +0.434 C 
ATOM      2  F   LIG    1       -0.365   0.813   1.552  0.00  0.00    -0.186 F 
ATOM      3  F   LIG    1       -0.093   1.848  -0.432  0.00  0.00    -0.186 F 
ENDROOT
BRANCH   1   4
ATOM      4  C   LIG    1        1.215  -0.087   0.097  0.00  0.00    +0.463 C 
ATOM      5  F   LIG    1        1.230  -1.202   0.914  0.00  0.00    -0.165 F 
ATOM      6  F   LIG    1        2.226   0.744   0.561  0.00  0.00    -0.165 F 
ATOM      7  F   LIG    1        1.444  -0.518  -1.190  0.00  0.00    -0.165 F 
ENDBRANCH   1   4
BRANCH   1   8
ATOM      8  C   LIG    1       -1.180  -0.298  -0.317  0.00  0.00    +0.463 C 
ATOM      9  F   LIG    1       -1.126  -1.425   0.516  0.00  0.00    -0.165 F 
ATOM     10  F   LIG    1       -2.429   0.253  -0.321  0.00  0.00    -0.165 F 
ATOM     11  F   LIG    1       -0.801  -0.769  -1.577  0.00  0.00    -0.165 F 
ENDBRANCH   1   8
TORSDOF 2
