REMARK  Name = molecules/QYSPLQLAKJAUJT-UHFFFAOYSA-N.pdb
REMARK                            x       y       z     vdW  Elec       q    Type
REMARK                         _______ _______ _______ _____ _____    ______ ____
ROOT
ATOM      1  C   LIG    1       -0.434   2.924   0.489  0.00  0.00    +0.158 C 
ATOM      2  N   LIG    1       -1.108   1.687   0.312  0.00  0.00    -0.197 N 
ATOM      3  S   LIG    1       -2.830   1.783   0.374  0.00  0.00    +0.075 S 
ATOM      4  O   LIG    1       -3.243   2.285   1.750  0.00  0.00    -0.150 OA
ATOM      5  C   LIG    1       -3.414   0.189   0.083  0.00  0.00    +0.119 A 
ATOM      6  C   LIG    1       -4.757  -0.004   0.057  0.00  0.00    +0.029 A 
ATOM      7  C   LIG    1       -5.322  -1.261  -0.164  0.00  0.00    +0.002 A 
ATOM      8  C   LIG    1       -4.451  -2.295  -0.354  0.00  0.00    +0.001 A 
ATOM      9  C   LIG    1       -3.078  -2.072  -0.323  0.00  0.00    +0.013 A 
ATOM     10  C   LIG    1       -2.524  -0.811  -0.102  0.00  0.00    +0.045 A 
ATOM     11  C   LIG    1       -1.072  -0.662  -0.092  0.00  0.00    +0.153 C 
ATOM     12  O   LIG    1       -3.355   2.752  -0.643  0.00  0.00    -0.150 OA
ATOM     13  C   LIG    1       -0.411   0.465   0.095  0.00  0.00    +0.155 C 
ENDROOT
BRANCH  13  14
ATOM     14  C   LIG    1        1.042   0.531   0.095  0.00  0.00    +0.268 C 
ATOM     15  O   LIG    1        1.580   1.669   0.287  0.00  0.00    -0.268 OA
ATOM     16  N   LIG    1        1.903  -0.559  -0.099  0.00  0.00    -0.265 N 
ATOM     17  H   LIG    1        1.534  -1.542  -0.265  0.00  0.00    +0.157 HD
BRANCH  16  18
ATOM     18  C   LIG    1        3.326  -0.512  -0.101  0.00  0.00    +0.125 A 
ATOM     19  C   LIG    1        4.045   0.622   0.088  0.00  0.00    +0.044 A 
ATOM     20  C   LIG    1        5.439   0.581   0.071  0.00  0.00    +0.005 A 
ATOM     21  C   LIG    1        6.044  -0.631  -0.142  0.00  0.00    +0.020 A 
ATOM     22  C   LIG    1        5.307  -1.791  -0.336  0.00  0.00    +0.113 A 
ATOM     23  N   LIG    1        3.982  -1.671  -0.305  0.00  0.00    -0.240 NA
ENDBRANCH  16  18
ENDBRANCH  13  14
BRANCH  11  24
ATOM     24  O   LIG    1       -0.364  -1.842  -0.303  0.00  0.00    -0.504 OA
ATOM     25  H   LIG    1       -0.530  -2.472  -1.062  0.00  0.00    +0.292 HD
ENDBRANCH  11  24
TORSDOF 3
