REMARK  Name = molecules/QYSXJUFSXHHAJI-YRZJJWOYSA-N.pdb
REMARK                            x       y       z     vdW  Elec       q    Type
REMARK                         _______ _______ _______ _____ _____    ______ ____
ROOT
ATOM      1  C   LIG    1        1.835  -0.285   0.246  0.00  0.00    -0.002 C 
ATOM      2  C   LIG    1        1.142   0.649   1.229  0.00  0.00    +0.005 C 
ATOM      3  C   LIG    1       -0.368   0.486   0.948  0.00  0.00    +0.009 C 
ATOM      4  C   LIG    1       -0.402  -0.939   0.607  0.00  0.00    +0.021 C 
ATOM      5  C   LIG    1       -1.595  -1.470  -0.067  0.00  0.00    -0.066 C 
ATOM      6  C   LIG    1       -1.493  -2.913  -0.376  0.00  0.00    +0.031 C 
ATOM      7  C   LIG    1       -0.202  -3.209  -1.119  0.00  0.00    +0.005 C 
ATOM      8  C   LIG    1        0.984  -2.520  -0.516  0.00  0.00    +0.008 C 
ATOM      9  C   LIG    1       -2.665  -0.753  -0.390  0.00  0.00    -0.000 C 
ATOM     10  C   LIG    1        0.738  -1.028  -0.426  0.00  0.00    -0.022 C 
ATOM     11  C   LIG    1        0.344  -0.527  -1.764  0.00  0.00    +0.012 C 
ENDROOT
BRANCH   9  12
ATOM     12  C   LIG    1       -3.806  -1.348  -1.053  0.00  0.00    +0.004 C 
ATOM     13  C   LIG    1       -4.865  -0.571  -1.313  0.00  0.00    -0.042 C 
ATOM     14  C   LIG    1       -4.900   0.811  -0.861  0.00  0.00    -0.051 C 
ATOM     15  C   LIG    1       -4.572   1.049   0.375  0.00  0.00    +0.012 C 
ATOM     16  C   LIG    1       -5.339   1.888  -1.811  0.00  0.00    +0.037 C 
ATOM     17  C   LIG    1       -6.270   1.254  -2.810  0.00  0.00    +0.036 C 
ATOM     18  C   LIG    1       -7.027   0.064  -2.267  0.00  0.00    +0.119 C 
ATOM     19  C   LIG    1       -6.091  -1.105  -2.011  0.00  0.00    +0.066 C 
BRANCH  18  20
ATOM     20  O   LIG    1       -7.696   0.439  -1.111  0.00  0.00    -0.391 OA
ATOM     21  H   LIG    1       -8.096   1.322  -1.200  0.00  0.00    +0.210 HD
ENDBRANCH  18  20
ENDBRANCH   9  12
BRANCH   1  22
ATOM     22  C   LIG    1        2.739   0.516  -0.598  0.00  0.00    -0.010 C 
ATOM     23  C   LIG    1        3.414  -0.148  -1.738  0.00  0.00    +0.008 C 
BRANCH  22  24
ATOM     24  C   LIG    1        3.819   1.216   0.235  0.00  0.00    +0.003 C 
BRANCH  24  25
ATOM     25  C   LIG    1        4.826   0.253   0.739  0.00  0.00    +0.001 C 
BRANCH  25  26
ATOM     26  C   LIG    1        5.964   0.780   1.530  0.00  0.00    +0.003 C 
BRANCH  26  28
ATOM     27  C   LIG    1        4.923   2.736   2.782  0.00  0.00    +0.007 C 
ATOM     28  C   LIG    1        5.719   1.482   2.801  0.00  0.00    -0.017 C 
ATOM     29  C   LIG    1        5.188   0.493   3.843  0.00  0.00    +0.007 C 
ENDBRANCH  26  28
ENDBRANCH  25  26
ENDBRANCH  24  25
ENDBRANCH  22  24
ENDBRANCH   1  22
TORSDOF 7
