REMARK  Name = molecules/QZVCTJOXCFMACW-INIZCTEOSA-N.pdb
REMARK                            x       y       z     vdW  Elec       q    Type
REMARK                         _______ _______ _______ _____ _____    ______ ____
ROOT
ATOM      1  N   LIG    1       -0.753  -0.608  -0.197  0.00  0.00    -0.291 NA
ENDROOT
BRANCH   1   2
ATOM      2  C   LIG    1       -0.255  -0.081   1.038  0.00  0.00    +0.091 C 
ATOM      3  C   LIG    1        0.464  -1.081   1.872  0.00  0.00    +0.027 C 
BRANCH   2   4
ATOM      4  C   LIG    1        0.497   1.206   0.942  0.00  0.00    +0.247 C 
BRANCH   4   5
ATOM      5  O   LIG    1        1.579   1.240   0.175  0.00  0.00    -0.490 OA
BRANCH   5   6
ATOM      6  C   LIG    1        2.788   0.830  -0.108  0.00  0.00    +0.121 A 
ATOM      7  C   LIG    1        3.553  -0.085   0.583  0.00  0.00    +0.045 A 
ATOM      8  C   LIG    1        4.833  -0.453   0.188  0.00  0.00    +0.004 A 
ATOM      9  C   LIG    1        5.372   0.113  -0.936  0.00  0.00    +0.000 A 
ATOM     10  C   LIG    1        4.660   1.031  -1.666  0.00  0.00    +0.004 A 
ATOM     11  C   LIG    1        3.409   1.370  -1.254  0.00  0.00    +0.045 A 
ENDBRANCH   5   6
ENDBRANCH   4   5
ENDBRANCH   2   4
ENDBRANCH   1   2
BRANCH   1  12
ATOM     12  C   LIG    1       -1.737   0.247  -0.814  0.00  0.00    +0.120 C 
BRANCH  12  13
ATOM     13  C   LIG    1       -2.900   0.422   0.126  0.00  0.00    -0.033 A 
ATOM     14  C   LIG    1       -3.417  -0.704   0.740  0.00  0.00    +0.005 A 
ATOM     15  C   LIG    1       -4.490  -0.567   1.616  0.00  0.00    +0.000 A 
ATOM     16  C   LIG    1       -5.027   0.677   1.865  0.00  0.00    +0.000 A 
ATOM     17  C   LIG    1       -4.496   1.785   1.243  0.00  0.00    +0.000 A 
ATOM     18  C   LIG    1       -3.415   1.677   0.356  0.00  0.00    +0.005 A 
ENDBRANCH  12  13
ENDBRANCH   1  12
BRANCH   1  19
ATOM     19  C   LIG    1        0.230  -1.111  -1.083  0.00  0.00    +0.101 C 
BRANCH  19  20
ATOM     20  C   LIG    1       -0.408  -2.100  -2.034  0.00  0.00    +0.124 C 
ATOM     21 CL   LIG    1        0.808  -2.775  -3.157  0.00  0.00    -0.124 Cl
ENDBRANCH  19  20
ENDBRANCH   1  19
TORSDOF 8
