REMARK  Name = molecules/QZZUEBNBZAPZLX-QFIPXVFZSA-N.pdb
REMARK                            x       y       z     vdW  Elec       q    Type
REMARK                         _______ _______ _______ _____ _____    ______ ____
ROOT
ATOM      1  C   LIG    1        2.675  -0.136   0.324  0.00  0.00    +0.159 C 
ENDROOT
BRANCH   1   9
ATOM      2  C   LIG    1        6.663   1.539   0.154  0.00  0.00    +0.141 A 
ATOM      3  C   LIG    1        6.455   0.166   0.296  0.00  0.00    +0.091 A 
ATOM      4  C   LIG    1        5.174  -0.343   0.335  0.00  0.00    +0.008 A 
ATOM      5  C   LIG    1        5.045  -1.712   0.406  0.00  0.00    +0.016 A 
ATOM      6  C   LIG    1        6.194  -2.462   0.430  0.00  0.00    +0.071 A 
ATOM      7  C   LIG    1        7.460  -1.947   0.392  0.00  0.00    +0.249 A 
ATOM      8  O   LIG    1        8.506  -2.645   0.415  0.00  0.00    -0.268 OA
ATOM      9  C   LIG    1        4.047   0.476   0.231  0.00  0.00    -0.009 A 
ATOM     10  C   LIG    1        4.292   1.817   0.090  0.00  0.00    +0.010 A 
ATOM     11  N   LIG    1        7.563  -0.603   0.325  0.00  0.00    -0.319 N 
ATOM     12  H   LIG    1        8.551  -0.219   0.282  0.00  0.00    +0.169 HD
ATOM     13  C   LIG    1        5.563   2.352   0.053  0.00  0.00    +0.048 A 
BRANCH   2  14
ATOM     14  O   LIG    1        7.958   2.081   0.111  0.00  0.00    -0.505 OA
ATOM     15  H   LIG    1        8.081   3.067   0.013  0.00  0.00    +0.292 HD
ENDBRANCH   2  14
ENDBRANCH   1   9
BRANCH   1  16
ATOM     16  O   LIG    1        1.862   0.742   1.100  0.00  0.00    -0.386 OA
ATOM     17  H   LIG    1        1.682   0.430   1.988  0.00  0.00    +0.210 HD
ENDBRANCH   1  16
BRANCH   1  18
ATOM     18  C   LIG    1        2.080  -0.100  -1.046  0.00  0.00    +0.117 C 
BRANCH  18  19
ATOM     19  N   LIG    1        0.827  -0.611  -1.297  0.00  0.00    -0.310 NA
ATOM     20  H   LIG    1        0.853  -1.697  -0.975  0.00  0.00    +0.122 HD
BRANCH  19  21
ATOM     21  C   LIG    1       -0.393  -0.133  -0.920  0.00  0.00    +0.062 C 
ATOM     22  C   LIG    1       -0.991  -0.628   0.338  0.00  0.00    +0.054 C 
ATOM     23  C   LIG    1       -2.481  -0.371   0.126  0.00  0.00    -0.042 A 
ATOM     24  C   LIG    1       -3.516  -0.222   1.023  0.00  0.00    +0.007 A 
ATOM     25  C   LIG    1       -4.828   0.073   0.587  0.00  0.00    -0.044 A 
ATOM     26  C   LIG    1       -5.020   0.203  -0.766  0.00  0.00    -0.044 A 
ATOM     27  C   LIG    1       -3.957   0.046  -1.661  0.00  0.00    +0.007 A 
ATOM     28  C   LIG    1       -2.678  -0.243  -1.226  0.00  0.00    -0.042 A 
ATOM     29  C   LIG    1       -1.413  -0.523  -1.966  0.00  0.00    +0.054 C 
BRANCH  25  30
ATOM     30  C   LIG    1       -5.923   0.232   1.560  0.00  0.00    +0.032 C 
ATOM     31  C   LIG    1       -6.247   1.645   1.968  0.00  0.00    +0.009 C 
ENDBRANCH  25  30
BRANCH  26  32
ATOM     32  C   LIG    1       -6.350   0.428  -1.353  0.00  0.00    +0.032 C 
ATOM     33  C   LIG    1       -6.962  -0.952  -1.539  0.00  0.00    +0.009 C 
ENDBRANCH  26  32
ENDBRANCH  19  21
ENDBRANCH  18  19
ENDBRANCH   1  18
TORSDOF 8
