REMARK  Name = molecules/RADKZDMFGJYCBB-UHFFFAOYSA-N.pdb
REMARK                            x       y       z     vdW  Elec       q    Type
REMARK                         _______ _______ _______ _____ _____    ______ ____
ROOT
ATOM      1  C   LIG    1       -3.165  -0.486   0.146  0.00  0.00    +0.069 C 
ATOM      2  C   LIG    1       -1.675  -0.453   0.000  0.00  0.00    +0.080 A 
ATOM      3  C   LIG    1       -1.028   0.684   0.393  0.00  0.00    +0.148 A 
ATOM      4  C   LIG    1        0.370   0.722   0.259  0.00  0.00    +0.064 A 
ATOM      5  C   LIG    1        1.015  -0.375  -0.256  0.00  0.00    +0.010 A 
ATOM      6  C   LIG    1        0.287  -1.512  -0.640  0.00  0.00    +0.117 A 
ATOM      7  N   LIG    1       -1.037  -1.529  -0.505  0.00  0.00    -0.256 NA
ENDROOT
BRANCH   3   8
ATOM      8  O   LIG    1       -1.643   1.804   0.914  0.00  0.00    -0.504 OA
ATOM      9  H   LIG    1       -2.644   1.815   1.026  0.00  0.00    +0.292 HD
ENDBRANCH   3   8
BRANCH   4  10
ATOM     10  C   LIG    1        1.118   1.898   0.661  0.00  0.00    +0.262 C 
ATOM     11  O   LIG    1        2.358   1.930   0.543  0.00  0.00    -0.296 OA
ENDBRANCH   4  10
BRANCH   5  12
ATOM     12  C   LIG    1        2.476  -0.364  -0.414  0.00  0.00    +0.193 C 
BRANCH  12  13
ATOM     13  O   LIG    1        2.891  -1.606  -0.955  0.00  0.00    -0.390 OA
ATOM     14  H   LIG    1        3.828  -1.529  -1.259  0.00  0.00    +0.210 HD
ENDBRANCH  12  13
ENDBRANCH   5  12
TORSDOF 4
