REMARK  Name = molecules/RAFOHKSPUDGZPR-UHFFFAOYSA-N.pdb
REMARK                            x       y       z     vdW  Elec       q    Type
REMARK                         _______ _______ _______ _____ _____    ______ ____
ROOT
ATOM      1  C   LIG    1       -0.812  -0.222  -0.173  0.00  0.00    +0.144 C 
ATOM      2  C   LIG    1       -1.215  -0.925   1.028  0.00  0.00    +0.240 C 
ATOM      3  N   LIG    1       -2.189  -0.419   1.908  0.00  0.00    -0.239 N 
ATOM      4  H   LIG    1       -2.408  -0.881   2.842  0.00  0.00    +0.159 HD
ATOM      5  C   LIG    1       -2.958   0.738   1.630  0.00  0.00    +0.312 C 
ATOM      6  O   LIG    1       -3.824   1.199   2.396  0.00  0.00    -0.252 OA
ATOM      7  N   LIG    1       -2.677   1.369   0.384  0.00  0.00    -0.239 N 
ATOM      8  H   LIG    1       -3.217   2.238   0.119  0.00  0.00    +0.159 HD
ATOM      9  O   LIG    1       -0.719  -2.053   1.381  0.00  0.00    -0.274 OA
ATOM     10  C   LIG    1       -1.713   0.894  -0.519  0.00  0.00    +0.240 C 
ATOM     11  O   LIG    1       -1.639   1.466  -1.664  0.00  0.00    -0.274 OA
ENDROOT
BRANCH   1  13
ATOM     12  C   LIG    1        1.613   0.161  -0.619  0.00  0.00    -0.027 C 
ATOM     13  C   LIG    1        0.527   0.409   0.091  0.00  0.00    -0.053 C 
ATOM     14  C   LIG    1        0.699   1.389   1.217  0.00  0.00    +0.040 C 
BRANCH  12  16
ATOM     15  C   LIG    1        4.004  -0.229  -0.051  0.00  0.00    +0.008 C 
ATOM     16  C   LIG    1        2.928   0.777  -0.368  0.00  0.00    +0.024 C 
ENDBRANCH  12  16
ENDBRANCH   1  13
BRANCH   1  17
ATOM     17  C   LIG    1       -0.617  -1.153  -1.357  0.00  0.00    +0.026 C 
ATOM     18  C   LIG    1       -1.901  -1.857  -1.730  0.00  0.00    +0.005 C 
ENDBRANCH   1  17
TORSDOF 3
