REMARK  Name = molecules/RAGOYPUPXAKGKH-XAKZXMRKSA-N.pdb
REMARK                            x       y       z     vdW  Elec       q    Type
REMARK                         _______ _______ _______ _____ _____    ______ ____
ROOT
ATOM      1  C   LIG    1       -1.843  -1.079  -0.705  0.00  0.00    +0.030 A 
ATOM      2  C   LIG    1       -2.443  -2.029   0.105  0.00  0.00    +0.027 A 
ATOM      3  C   LIG    1       -3.691  -2.492  -0.186  0.00  0.00    +0.047 A 
ATOM      4  C   LIG    1       -4.447  -2.055  -1.298  0.00  0.00    +0.121 A 
ATOM      5  C   LIG    1       -3.810  -1.107  -2.079  0.00  0.00    +0.047 A 
ATOM      6  C   LIG    1       -2.556  -0.625  -1.808  0.00  0.00    +0.027 A 
ENDROOT
BRANCH   1  10
ATOM      7  N   LIG    1        2.162  -0.873  -0.128  0.00  0.00    -0.327 N 
ATOM      8  C   LIG    1        1.264  -1.492   0.825  0.00  0.00    +0.124 C 
ATOM      9  C   LIG    1        0.020  -0.668   0.891  0.00  0.00    +0.124 C 
ATOM     10  N   LIG    1       -0.546  -0.595  -0.428  0.00  0.00    -0.327 N 
ATOM     11  C   LIG    1        0.265   0.012  -1.446  0.00  0.00    +0.124 C 
ATOM     12  C   LIG    1        1.657  -0.639  -1.460  0.00  0.00    +0.124 C 
BRANCH   7  16
ATOM     13  C   LIG    1        6.152   0.172   0.886  0.00  0.00    +0.053 A 
ATOM     14  C   LIG    1        5.204  -0.032   1.857  0.00  0.00    +0.028 A 
ATOM     15  C   LIG    1        3.893  -0.379   1.542  0.00  0.00    +0.025 A 
ATOM     16  C   LIG    1        3.495  -0.531   0.233  0.00  0.00    +0.030 A 
ATOM     17  C   LIG    1        4.449  -0.325  -0.749  0.00  0.00    +0.025 A 
ATOM     18  C   LIG    1        5.750   0.019  -0.430  0.00  0.00    +0.028 A 
BRANCH  13  22
ATOM     19  N   LIG    1        9.676   0.659   1.046  0.00  0.00    -0.207 N 
ATOM     20  N   LIG    1        9.257   1.423   2.033  0.00  0.00    -0.157 NA
ATOM     21  C   LIG    1        7.939   1.355   2.114  0.00  0.00    +0.230 A 
ATOM     22  N   LIG    1        7.516   0.524   1.149  0.00  0.00    -0.250 N 
ATOM     23  C   LIG    1        8.594   0.074   0.464  0.00  0.00    +0.351 A 
ATOM     24  O   LIG    1        8.607  -0.719  -0.507  0.00  0.00    -0.244 OA
BRANCH  19  25
ATOM     25  C   LIG    1       11.070   0.482   0.654  0.00  0.00    +0.140 C 
BRANCH  25  27
ATOM     26  C   LIG    1       12.719   1.189  -1.091  0.00  0.00    +0.006 C 
ATOM     27  C   LIG    1       11.290   1.284  -0.603  0.00  0.00    +0.026 C 
ENDBRANCH  25  27
BRANCH  25  28
ATOM     28  C   LIG    1       11.959   0.971   1.771  0.00  0.00    +0.136 C 
ATOM     29  C   LIG    1       11.778   0.198   3.047  0.00  0.00    +0.040 C 
BRANCH  28  30
ATOM     30  O   LIG    1       11.718   2.319   2.060  0.00  0.00    -0.390 OA
ATOM     31  H   LIG    1       11.241   2.442   2.906  0.00  0.00    +0.210 HD
ENDBRANCH  28  30
ENDBRANCH  25  28
ENDBRANCH  19  25
ENDBRANCH  13  22
ENDBRANCH   7  16
ENDBRANCH   1  10
BRANCH   4  32
ATOM     32  O   LIG    1       -5.625  -2.571  -1.467  0.00  0.00    -0.492 OA
BRANCH  32  33
ATOM     33  C   LIG    1       -6.805  -2.890  -1.885  0.00  0.00    +0.235 C 
BRANCH  33  34
ATOM     34  C   LIG    1       -7.915  -1.818  -1.951  0.00  0.00    +0.055 C 
ATOM     35  C   LIG    1       -8.144  -1.132  -0.669  0.00  0.00    +0.051 C 
ATOM     36  C   LIG    1       -7.860   0.305  -0.859  0.00  0.00    +0.117 C 
ATOM     37  O   LIG    1       -7.524   0.473  -2.179  0.00  0.00    -0.366 OA
ATOM     38  C   LIG    1       -7.554  -0.688  -2.857  0.00  0.00    +0.168 C 
BRANCH  36  39
ATOM     39  C   LIG    1       -9.065   1.173  -0.740  0.00  0.00    +0.021 A 
ATOM     40  C   LIG    1       -9.011   2.357  -0.082  0.00  0.00    +0.012 A 
ATOM     41  C   LIG    1      -10.098   3.257  -0.064  0.00  0.00    +0.039 A 
ATOM     42  C   LIG    1      -11.248   2.944  -0.725  0.00  0.00    +0.126 A 
ATOM     43  F   LIG    1      -12.336   3.762  -0.752  0.00  0.00    -0.205 F 
ATOM     44  C   LIG    1      -11.336   1.769  -1.394  0.00  0.00    +0.077 A 
ATOM     45  C   LIG    1      -10.261   0.895  -1.402  0.00  0.00    +0.132 A 
ATOM     46  F   LIG    1      -10.309  -0.278  -2.044  0.00  0.00    -0.205 F 
ENDBRANCH  36  39
BRANCH  36  47
ATOM     47  C   LIG    1       -6.784   0.711   0.102  0.00  0.00    +0.185 C 
BRANCH  47  48
ATOM     48  N   LIG    1       -7.021   0.453   1.490  0.00  0.00    -0.249 N 
ATOM     49  C   LIG    1       -7.540   1.108   2.488  0.00  0.00    +0.219 A 
ATOM     50  N   LIG    1       -7.527   0.384   3.643  0.00  0.00    -0.223 NA
ATOM     51  C   LIG    1       -6.962  -0.772   3.300  0.00  0.00    +0.244 A 
ATOM     52  N   LIG    1       -6.655  -0.745   2.020  0.00  0.00    -0.158 NA
ENDBRANCH  47  48
ENDBRANCH  36  47
ENDBRANCH  33  34
ENDBRANCH  32  33
ENDBRANCH   4  32
TORSDOF 13
