REMARK  Name = molecules/RAMPGXSXWLFXFU-UHFFFAOYSA-N.pdb
REMARK                            x       y       z     vdW  Elec       q    Type
REMARK                         _______ _______ _______ _____ _____    ______ ____
ROOT
ATOM      1  C   LIG    1       -0.481   0.964   0.018  0.00  0.00    +0.120 A 
ATOM      2  C   LIG    1       -1.792   1.329   0.205  0.00  0.00    +0.135 A 
ATOM      3  C   LIG    1       -2.048   2.662   0.565  0.00  0.00    +0.053 A 
ATOM      4  C   LIG    1       -1.014   3.558   0.721  0.00  0.00    +0.027 A 
ATOM      5  C   LIG    1        0.298   3.180   0.530  0.00  0.00    +0.025 A 
ATOM      6  C   LIG    1        0.560   1.895   0.182  0.00  0.00    +0.031 A 
ENDROOT
BRANCH   1   7
ATOM      7  S   LIG    1       -0.118  -0.687  -0.403  0.00  0.00    +0.027 S 
ATOM      8  O   LIG    1       -0.406  -1.646   0.729  0.00  0.00    -0.164 OA
ATOM      9  O   LIG    1       -0.802  -1.135  -1.664  0.00  0.00    -0.164 OA
BRANCH   7  10
ATOM     10  C   LIG    1        1.633  -0.802  -0.646  0.00  0.00    +0.094 A 
ATOM     11  C   LIG    1        2.407  -0.966   0.482  0.00  0.00    +0.029 A 
ATOM     12  C   LIG    1        3.776  -1.070   0.397  0.00  0.00    +0.024 A 
ATOM     13  C   LIG    1        4.356  -1.005  -0.843  0.00  0.00    +0.025 A 
ATOM     14  C   LIG    1        3.572  -0.840  -1.964  0.00  0.00    +0.024 A 
ATOM     15  C   LIG    1        2.200  -0.736  -1.886  0.00  0.00    +0.029 A 
BRANCH  13  16
ATOM     16  N   LIG    1        5.776  -1.110  -0.956  0.00  0.00    -0.358 N 
ATOM     17  H   LIG    1        6.415  -1.000  -0.141  0.00  0.00    +0.142 HD
ATOM     18  H   LIG    1        6.234  -1.308  -1.891  0.00  0.00    +0.142 HD
ENDBRANCH  13  16
ENDBRANCH   7  10
ENDBRANCH   1   7
BRANCH   4  19
ATOM     19  N   LIG    1       -1.256   4.917   1.090  0.00  0.00    -0.358 N 
ATOM     20  H   LIG    1       -0.616   5.310   1.808  0.00  0.00    +0.142 HD
ATOM     21  H   LIG    1       -2.041   5.436   0.635  0.00  0.00    +0.142 HD
ENDBRANCH   4  19
BRANCH   2  22
ATOM     22  S   LIG    1       -3.102   0.211  -0.004  0.00  0.00    +0.076 S 
ATOM     23  O   LIG    1       -4.397   0.971   0.298  0.00  0.00    -0.150 OA
ATOM     24  O   LIG    1       -3.229  -0.194  -1.455  0.00  0.00    -0.150 OA
BRANCH  22  25
ATOM     25  N   LIG    1       -3.081  -1.139   1.016  0.00  0.00    -0.186 N 
ATOM     26  H   LIG    1       -2.753  -1.060   1.997  0.00  0.00    +0.177 HD
ATOM     27  C   LIG    1       -3.514  -2.404   0.560  0.00  0.00    +0.229 C 
ATOM     28  C   LIG    1       -3.539  -3.638   1.357  0.00  0.00    +0.111 C 
ATOM     29  O   LIG    1       -3.914  -2.488  -0.636  0.00  0.00    -0.275 OA
ENDBRANCH  22  25
ENDBRANCH   2  22
TORSDOF 6
