REMARK  Name = molecules/RARSHUDCJQSEFJ-UHFFFAOYSA-N.pdb
REMARK                            x       y       z     vdW  Elec       q    Type
REMARK                         _______ _______ _______ _____ _____    ______ ____
ROOT
ATOM      1  C   LIG    1       -0.015  -0.162  -0.504  0.00  0.00    +0.018 A 
ATOM      2  C   LIG    1       -0.557   0.638   0.476  0.00  0.00    +0.015 A 
ATOM      3  C   LIG    1       -1.910   0.610   0.800  0.00  0.00    +0.046 A 
ATOM      4  C   LIG    1       -2.786  -0.229   0.151  0.00  0.00    +0.117 A 
ATOM      5  C   LIG    1       -2.258  -1.037  -0.834  0.00  0.00    +0.046 A 
ATOM      6  C   LIG    1       -0.921  -1.010  -1.155  0.00  0.00    +0.015 A 
ENDROOT
BRANCH   1   7
ATOM      7  C   LIG    1        1.386  -0.154  -0.857  0.00  0.00    +0.163 C 
ATOM      8  O   LIG    1        1.822  -0.920  -1.753  0.00  0.00    -0.292 OA
BRANCH   7  10
ATOM      9  C   LIG    1        3.004  -0.001   0.977  0.00  0.00    +0.012 C 
ATOM     10  C   LIG    1        2.334   0.744  -0.180  0.00  0.00    +0.076 C 
ENDBRANCH   7  10
ENDBRANCH   1   7
BRANCH   4  11
ATOM     11  O   LIG    1       -4.138  -0.268   0.464  0.00  0.00    -0.507 OA
ATOM     12  H   LIG    1       -4.807   0.346  -0.018  0.00  0.00    +0.292 HD
ENDBRANCH   4  11
TORSDOF 3
