REMARK  Name = molecules/RBBWCVQDXDFISW-UHFFFAOYSA-N.pdb
REMARK                            x       y       z     vdW  Elec       q    Type
REMARK                         _______ _______ _______ _____ _____    ______ ____
ROOT
ATOM      1  O   LIG    1        1.485   1.419   0.887  0.00  0.00    -0.273 OA
ATOM      2  C   LIG    1        0.934   0.419   0.403  0.00  0.00    +0.249 C 
ATOM      3  N   LIG    1       -0.493   0.311   0.198  0.00  0.00    -0.180 N 
ATOM      4  N   LIG    1       -0.856  -1.056   0.137  0.00  0.00    -0.180 N 
ATOM      5  C   LIG    1        0.367  -1.787   0.305  0.00  0.00    +0.249 C 
ATOM      6  O   LIG    1        0.556  -2.955   0.671  0.00  0.00    -0.273 OA
ATOM      7  C   LIG    1        1.501  -0.840  -0.063  0.00  0.00    +0.168 C 
ENDROOT
BRANCH   4   8
ATOM      8  C   LIG    1       -2.129  -1.655  -0.047  0.00  0.00    +0.057 A 
ATOM      9  C   LIG    1       -2.886  -2.108   1.009  0.00  0.00    +0.025 A 
ATOM     10  C   LIG    1       -4.124  -2.695   0.847  0.00  0.00    +0.002 A 
ATOM     11  C   LIG    1       -4.636  -2.840  -0.431  0.00  0.00    +0.000 A 
ATOM     12  C   LIG    1       -3.904  -2.398  -1.515  0.00  0.00    +0.002 A 
ATOM     13  C   LIG    1       -2.656  -1.808  -1.311  0.00  0.00    +0.025 A 
ENDBRANCH   4   8
BRANCH   3  14
ATOM     14  C   LIG    1       -1.379   1.387   0.083  0.00  0.00    +0.057 A 
ATOM     15  C   LIG    1       -2.421   1.559   0.993  0.00  0.00    +0.025 A 
ATOM     16  C   LIG    1       -3.302   2.617   0.894  0.00  0.00    +0.002 A 
ATOM     17  C   LIG    1       -3.166   3.539  -0.126  0.00  0.00    +0.000 A 
ATOM     18  C   LIG    1       -2.149   3.401  -1.042  0.00  0.00    +0.002 A 
ATOM     19  C   LIG    1       -1.286   2.333  -0.915  0.00  0.00    +0.025 A 
ENDBRANCH   3  14
BRANCH   7  20
ATOM     20  C   LIG    1        2.712  -1.346   0.578  0.00  0.00    +0.049 C 
BRANCH  20  21
ATOM     21  C   LIG    1        3.978  -0.642   0.562  0.00  0.00    -0.027 C 
ATOM     22  C   LIG    1        4.505   0.356  -0.024  0.00  0.00    -0.080 C 
ATOM     23  C   LIG    1        5.955   0.723   0.328  0.00  0.00    +0.038 C 
ATOM     24  C   LIG    1        3.926   1.220  -1.054  0.00  0.00    +0.038 C 
ENDBRANCH  20  21
ENDBRANCH   7  20
TORSDOF 4
