REMARK  Name = molecules/RBJROVWIRLFZFC-PNLFXGMVSA-N.pdb
REMARK                            x       y       z     vdW  Elec       q    Type
REMARK                         _______ _______ _______ _____ _____    ______ ____
ROOT
ATOM      1  C   LIG    1       -4.718  -1.487   0.393  0.00  0.00    +0.202 C 
ATOM      2  O   LIG    1       -5.087  -2.672   0.312  0.00  0.00    -0.291 OA
ENDROOT
BRANCH   1   5
ATOM      3  C   LIG    1       -5.979  -0.079  -1.814  0.00  0.00    +0.015 C 
ATOM      4  C   LIG    1       -6.725  -0.431  -0.599  0.00  0.00    +0.009 C 
ATOM      5  C   LIG    1       -5.715  -0.469   0.587  0.00  0.00    +0.133 C 
ATOM      6  C   LIG    1       -5.311   0.966   0.586  0.00  0.00    +0.043 C 
ATOM      7  C   LIG    1       -6.614   1.746   0.263  0.00  0.00    +0.008 C 
ATOM      8  C   LIG    1       -7.592   0.690  -0.019  0.00  0.00    +0.002 C 
ATOM      9  C   LIG    1       -8.734   1.019  -0.948  0.00  0.00    -0.000 C 
ATOM     10  C   LIG    1       -9.482   2.168  -0.374  0.00  0.00    +0.008 C 
ATOM     11  C   LIG    1      -10.906   2.307  -0.801  0.00  0.00    +0.032 C 
ATOM     12  C   LIG    1      -11.592   1.003  -0.927  0.00  0.00    -0.056 C 
ATOM     13  C   LIG    1      -12.768   0.848  -0.366  0.00  0.00    +0.051 C 
ATOM     14  C   LIG    1      -13.435  -0.430  -0.490  0.00  0.00    +0.179 C 
ATOM     15  O   LIG    1      -14.569  -0.612   0.040  0.00  0.00    -0.288 OA
ATOM     16  C   LIG    1      -12.788  -1.504  -1.230  0.00  0.00    +0.047 C 
ATOM     17  C   LIG    1      -11.617  -1.302  -1.772  0.00  0.00    -0.012 C 
ATOM     18  C   LIG    1      -10.868  -0.035  -1.694  0.00  0.00    +0.013 C 
ATOM     19  C   LIG    1      -10.667   0.438  -3.121  0.00  0.00    +0.020 C 
ATOM     20  C   LIG    1       -9.566  -0.237  -0.969  0.00  0.00    +0.035 C 
ATOM     21  C   LIG    1       -8.797  -1.431  -1.477  0.00  0.00    +0.120 C 
ATOM     22  C   LIG    1       -7.573  -1.646  -0.640  0.00  0.00    +0.041 C 
BRANCH   5  23
ATOM     23  O   LIG    1       -6.598  -0.765   1.666  0.00  0.00    -0.380 OA
ATOM     24  H   LIG    1       -6.079  -0.753   2.522  0.00  0.00    +0.211 HD
ENDBRANCH   5  23
BRANCH  21  25
ATOM     25  O   LIG    1       -8.527  -1.400  -2.821  0.00  0.00    -0.391 OA
ATOM     26  H   LIG    1       -8.991  -2.114  -3.317  0.00  0.00    +0.210 HD
ENDBRANCH  21  25
ENDBRANCH   1   5
BRANCH   1  27
ATOM     27  C   LIG    1       -3.270  -1.209   0.287  0.00  0.00    +0.309 C 
BRANCH  27  28
ATOM     28  O   LIG    1       -3.013   0.117   0.618  0.00  0.00    -0.454 OA
BRANCH  28  29
ATOM     29  C   LIG    1       -1.764   0.716   0.709  0.00  0.00    +0.346 C 
ATOM     30  O   LIG    1       -0.731   0.051   0.484  0.00  0.00    -0.247 OA
BRANCH  29  31
ATOM     31  C   LIG    1       -1.657   2.137   1.078  0.00  0.00    +0.352 C 
BRANCH  31  32
ATOM     32  O   LIG    1       -0.344   2.568   1.369  0.00  0.00    -0.453 OA
BRANCH  32  33
ATOM     33  C   LIG    1        0.362   1.973   2.437  0.00  0.00    +0.308 C 
ATOM     34  O   LIG    1       -0.220   1.067   3.062  0.00  0.00    -0.251 OA
BRANCH  33  35
ATOM     35  C   LIG    1        1.722   2.482   2.726  0.00  0.00    +0.120 C 
BRANCH  35  36
ATOM     36  C   LIG    1        2.328   1.832   3.929  0.00  0.00    +0.011 C 
BRANCH  36  37
ATOM     37  C   LIG    1        2.578   0.382   3.769  0.00  0.00    +0.001 C 
BRANCH  37  38
ATOM     38  C   LIG    1        3.620   0.046   2.702  0.00  0.00    +0.000 C 
BRANCH  38  39
ATOM     39  C   LIG    1        4.931   0.678   3.070  0.00  0.00    +0.000 C 
BRANCH  39  40
ATOM     40  C   LIG    1        6.061   0.353   2.137  0.00  0.00    +0.000 C 
BRANCH  40  41
ATOM     41  C   LIG    1        6.295  -1.128   2.103  0.00  0.00    -0.000 C 
BRANCH  41  42
ATOM     42  C   LIG    1        7.486  -1.534   1.240  0.00  0.00    -0.000 C 
BRANCH  42  43
ATOM     43  C   LIG    1        8.752  -0.938   1.768  0.00  0.00    -0.000 C 
BRANCH  43  44
ATOM     44  C   LIG    1        9.994  -1.304   1.003  0.00  0.00    -0.000 C 
BRANCH  44  45
ATOM     45  C   LIG    1        9.983  -0.870  -0.425  0.00  0.00    -0.000 C 
BRANCH  45  46
ATOM     46  C   LIG    1       11.265  -1.252  -1.150  0.00  0.00    -0.000 C 
BRANCH  46  47
ATOM     47  C   LIG    1       12.474  -0.646  -0.509  0.00  0.00    -0.000 C 
BRANCH  47  48
ATOM     48  C   LIG    1       13.754  -0.980  -1.223  0.00  0.00    -0.000 C 
BRANCH  48  49
ATOM     49  C   LIG    1       13.797  -0.500  -2.652  0.00  0.00    -0.000 C 
BRANCH  49  50
ATOM     50  C   LIG    1       15.156  -0.899  -3.207  0.00  0.00    -0.003 C 
ATOM     51  C   LIG    1       15.316  -0.457  -4.646  0.00  0.00    +0.004 C 
ENDBRANCH  49  50
ENDBRANCH  48  49
ENDBRANCH  47  48
ENDBRANCH  46  47
ENDBRANCH  45  46
ENDBRANCH  44  45
ENDBRANCH  43  44
ENDBRANCH  42  43
ENDBRANCH  41  42
ENDBRANCH  40  41
ENDBRANCH  39  40
ENDBRANCH  38  39
ENDBRANCH  37  38
ENDBRANCH  36  37
ENDBRANCH  35  36
ENDBRANCH  33  35
ENDBRANCH  32  33
ENDBRANCH  31  32
ENDBRANCH  29  31
ENDBRANCH  28  29
ENDBRANCH  27  28
ENDBRANCH   1  27
TORSDOF 25
