REMARK  Name = molecules/RBTBFTRPCNLSDE-UHFFFAOYSA-N.pdb
REMARK                            x       y       z     vdW  Elec       q    Type
REMARK                         _______ _______ _______ _____ _____    ______ ____
ROOT
ATOM      1  C   LIG    1       -3.810  -0.007   0.136  0.00  0.00    +0.030 A 
ATOM      2  C   LIG    1       -3.600  -1.209   0.779  0.00  0.00    +0.025 A 
ATOM      3  C   LIG    1       -2.341  -1.715   1.005  0.00  0.00    +0.031 A 
ATOM      4  C   LIG    1       -1.192  -1.019   0.584  0.00  0.00    +0.078 A 
ATOM      5  N   LIG    1        0.024  -1.536   0.812  0.00  0.00    -0.246 NA
ATOM      6  C   LIG    1        1.199  -1.030   0.488  0.00  0.00    +0.078 A 
ATOM      7  C   LIG    1        2.351  -1.758   0.825  0.00  0.00    +0.031 A 
ATOM      8  C   LIG    1        3.609  -1.291   0.513  0.00  0.00    +0.025 A 
ATOM      9  C   LIG    1        3.803  -0.109  -0.135  0.00  0.00    +0.030 A 
ATOM     10  C   LIG    1        2.682   0.614  -0.472  0.00  0.00    +0.040 A 
ATOM     11  C   LIG    1        1.420   0.155  -0.164  0.00  0.00    +0.040 A 
ATOM     12  S   LIG    1       -0.011   0.996  -0.558  0.00  0.00    -0.085 S 
ATOM     13  C   LIG    1       -1.440   0.175  -0.054  0.00  0.00    +0.040 A 
ATOM     14  C   LIG    1       -2.695   0.685  -0.282  0.00  0.00    +0.040 A 
ENDROOT
BRANCH   1  15
ATOM     15  N   LIG    1       -5.116   0.478  -0.094  0.00  0.00    -0.336 N 
ATOM     16  C   LIG    1       -5.692   1.414   0.839  0.00  0.00    +0.129 C 
ATOM     17  C   LIG    1       -5.886   0.064  -1.240  0.00  0.00    +0.129 C 
ENDBRANCH   1  15
BRANCH   9  18
ATOM     18  N   LIG    1        5.105   0.364  -0.454  0.00  0.00    -0.336 N 
ATOM     19  C   LIG    1        6.316  -0.378  -0.161  0.00  0.00    +0.129 C 
ATOM     20  C   LIG    1        5.228   1.662  -1.105  0.00  0.00    +0.129 C 
ENDBRANCH   9  18
TORSDOF 2
