REMARK  Name = molecules/RCIMBBZXSXFZBV-UHFFFAOYSA-N.pdb
REMARK                            x       y       z     vdW  Elec       q    Type
REMARK                         _______ _______ _______ _____ _____    ______ ____
ROOT
ATOM      1  N   LIG    1        2.009  -0.569   0.589  0.00  0.00    -0.331 N 
ATOM      2  C   LIG    1        3.267  -0.109   0.708  0.00  0.00    +0.106 A 
ATOM      3  C   LIG    1        3.602   1.233   0.613  0.00  0.00    +0.122 A 
ATOM      4  C   LIG    1        2.560   2.108   0.383  0.00  0.00    +0.206 A 
ATOM      5  O   LIG    1        2.751   3.355   0.278  0.00  0.00    -0.286 OA
ATOM      6  C   LIG    1        1.278   1.613   0.263  0.00  0.00    +0.083 A 
ATOM      7  C   LIG    1        0.227   2.482   0.033  0.00  0.00    +0.129 A 
ATOM      8  N   LIG    1       -1.020   1.992  -0.082  0.00  0.00    -0.222 NA
ATOM      9  C   LIG    1       -1.327   0.689   0.013  0.00  0.00    +0.220 A 
ATOM     10  N   LIG    1       -0.290  -0.166   0.240  0.00  0.00    -0.196 NA
ATOM     11  C   LIG    1        0.976   0.270   0.363  0.00  0.00    +0.149 A 
ENDROOT
BRANCH   9  12
ATOM     12  N   LIG    1       -2.661   0.213  -0.115  0.00  0.00    -0.300 N 
ATOM     13  C   LIG    1       -3.096  -1.165  -0.029  0.00  0.00    +0.108 C 
ATOM     14  C   LIG    1       -4.482  -1.166  -0.685  0.00  0.00    +0.020 C 
ATOM     15  C   LIG    1       -5.023   0.167  -0.156  0.00  0.00    +0.020 C 
ATOM     16  C   LIG    1       -3.807   1.060  -0.356  0.00  0.00    +0.108 C 
ENDBRANCH   9  12
BRANCH   1  17
ATOM     17  C   LIG    1        1.712  -1.983   0.697  0.00  0.00    +0.120 C 
ATOM     18  C   LIG    1        1.774  -2.688  -0.617  0.00  0.00    +0.027 C 
ENDBRANCH   1  17
BRANCH   3  19
ATOM     19  C   LIG    1        4.960   1.710   0.744  0.00  0.00    +0.342 C 
ATOM     20  O   LIG    1        5.195   2.932   0.648  0.00  0.00    -0.245 OA
BRANCH  19  21
ATOM     21  O   LIG    1        6.008   0.845   0.974  0.00  0.00    -0.477 OA
ATOM     22  H   LIG    1        6.404   0.271   0.243  0.00  0.00    +0.295 HD
ENDBRANCH  19  21
ENDBRANCH   3  19
TORSDOF 4
