REMARK  Name = molecules/RCTGMCJBQGBLKT-PAMTUDGESA-N.pdb
REMARK                            x       y       z     vdW  Elec       q    Type
REMARK                         _______ _______ _______ _____ _____    ______ ____
ROOT
ATOM      1  C   LIG    1        0.539  -1.155   0.152  0.00  0.00    +0.089 A 
ATOM      2  C   LIG    1       -0.414  -1.845   0.905  0.00  0.00    +0.032 A 
ATOM      3  C   LIG    1       -1.774  -1.534   0.784  0.00  0.00    +0.032 A 
ATOM      4  C   LIG    1       -2.184  -0.544  -0.082  0.00  0.00    +0.087 A 
ATOM      5  C   LIG    1       -1.209   0.110  -0.804  0.00  0.00    +0.035 A 
ATOM      6  C   LIG    1        0.126  -0.163  -0.714  0.00  0.00    -0.021 A 
ATOM      7  C   LIG    1        1.154   0.580  -1.525  0.00  0.00    +0.046 C 
ENDROOT
BRANCH   1   9
ATOM      8  N   LIG    1        2.704  -0.616   0.787  0.00  0.00    -0.145 NA
ATOM      9  N   LIG    1        1.929  -1.473   0.275  0.00  0.00    -0.149 NA
BRANCH   8  10
ATOM     10  C   LIG    1        4.100  -0.842   0.951  0.00  0.00    +0.135 A 
ATOM     11  C   LIG    1        4.925   0.262   1.056  0.00  0.00    +0.013 A 
ATOM     12  C   LIG    1        6.286   0.112   1.216  0.00  0.00    -0.016 A 
ATOM     13  C   LIG    1        7.083   1.227   1.317  0.00  0.00    +0.008 A 
ATOM     14  C   LIG    1        6.561   2.494   1.263  0.00  0.00    +0.001 A 
ATOM     15  C   LIG    1        5.200   2.654   1.103  0.00  0.00    +0.001 A 
ATOM     16  C   LIG    1        6.842  -1.144   1.274  0.00  0.00    +0.012 A 
ATOM     17  C   LIG    1        6.020  -2.229   1.170  0.00  0.00    +0.048 A 
ATOM     18  C   LIG    1        4.395   1.548   1.001  0.00  0.00    +0.011 A 
ATOM     19  C   LIG    1        4.667  -2.096   1.011  0.00  0.00    +0.144 A 
BRANCH  19  20
ATOM     20  O   LIG    1        3.849  -3.199   0.907  0.00  0.00    -0.505 OA
ATOM     21  H   LIG    1        4.261  -4.112   0.950  0.00  0.00    +0.292 HD
ENDBRANCH  19  20
ENDBRANCH   8  10
ENDBRANCH   1   9
BRANCH   4  22
ATOM     22  N   LIG    1       -3.574  -0.252  -0.183  0.00  0.00    -0.149 NA
ATOM     23  N   LIG    1       -4.189  -0.082  -1.250  0.00  0.00    -0.149 NA
BRANCH  23  24
ATOM     24  C   LIG    1       -5.569   0.209  -1.400  0.00  0.00    +0.089 A 
ATOM     25  C   LIG    1       -6.319   0.636  -0.328  0.00  0.00    -0.023 A 
ATOM     26  C   LIG    1       -5.701   0.800   1.008  0.00  0.00    +0.046 C 
ATOM     27  C   LIG    1       -7.676   0.925  -0.463  0.00  0.00    +0.005 A 
ATOM     28  C   LIG    1       -8.285   0.780  -1.704  0.00  0.00    +0.000 A 
ATOM     29  C   LIG    1       -7.552   0.352  -2.800  0.00  0.00    +0.002 A 
ATOM     30  C   LIG    1       -6.204   0.077  -2.615  0.00  0.00    +0.030 A 
ENDBRANCH  23  24
ENDBRANCH   4  22
TORSDOF 5
