REMARK  Name = molecules/RCUDFXMNPQNBDU-VOTSOKGWSA-N.pdb
REMARK                            x       y       z     vdW  Elec       q    Type
REMARK                         _______ _______ _______ _____ _____    ______ ____
ROOT
ATOM      1  C   LIG    1       -0.513   2.147  -0.437  0.00  0.00    +0.240 C 
ATOM      2  N   LIG    1        0.663   1.422  -0.388  0.00  0.00    -0.296 N 
ATOM      3  C   LIG    1        0.793   0.001  -0.212  0.00  0.00    +0.123 C 
ATOM      4  C   LIG    1        2.276  -0.392  -0.131  0.00  0.00    +0.104 C 
ATOM      5  N   LIG    1        3.004   0.070  -1.261  0.00  0.00    -0.291 NA
ATOM      6  C   LIG    1        2.875   1.478  -1.498  0.00  0.00    +0.104 C 
ATOM      7  C   LIG    1        1.939   2.146  -0.521  0.00  0.00    +0.123 C 
ATOM      8  O   LIG    1       -0.368   3.437  -0.610  0.00  0.00    -0.271 OA
ENDROOT
BRANCH   1  10
ATOM      9  C   LIG    1       -2.406   0.565  -0.157  0.00  0.00    +0.013 C 
ATOM     10  C   LIG    1       -1.896   1.755  -0.331  0.00  0.00    +0.068 C 
BRANCH   9  15
ATOM     11  C   LIG    1       -5.590  -1.383   0.220  0.00  0.00    +0.166 A 
ATOM     12  C   LIG    1       -6.590  -0.417   0.143  0.00  0.00    +0.204 A 
ATOM     13  C   LIG    1       -6.187   0.880  -0.037  0.00  0.00    +0.166 A 
ATOM     14  C   LIG    1       -4.830   1.218  -0.138  0.00  0.00    +0.057 A 
ATOM     15  C   LIG    1       -3.845   0.268  -0.061  0.00  0.00    -0.018 A 
ATOM     16  C   LIG    1       -4.256  -1.050   0.121  0.00  0.00    +0.057 A 
BRANCH  11  17
ATOM     17  O   LIG    1       -5.995  -2.696   0.402  0.00  0.00    -0.491 OA
ATOM     18  C   LIG    1       -5.003  -3.699   0.485  0.00  0.00    +0.277 C 
ENDBRANCH  11  17
BRANCH  12  19
ATOM     19  O   LIG    1       -7.913  -0.802   0.248  0.00  0.00    -0.488 OA
ATOM     20  C   LIG    1       -8.618  -0.879   1.468  0.00  0.00    +0.277 C 
ENDBRANCH  12  19
BRANCH  13  21
ATOM     21  O   LIG    1       -7.167   1.867  -0.118  0.00  0.00    -0.491 OA
ATOM     22  C   LIG    1       -6.791   3.233  -0.305  0.00  0.00    +0.277 C 
ENDBRANCH  13  21
ENDBRANCH   9  15
ENDBRANCH   1  10
BRANCH   5  23
ATOM     23  C   LIG    1        4.337  -0.438  -1.257  0.00  0.00    +0.180 C 
BRANCH  23  24
ATOM     24  C   LIG    1        5.218   0.097  -0.199  0.00  0.00    +0.230 C 
ATOM     25  O   LIG    1        4.717   0.955   0.587  0.00  0.00    -0.274 OA
ATOM     26  N   LIG    1        6.561  -0.298  -0.033  0.00  0.00    -0.300 N 
ATOM     27  C   LIG    1        7.467   0.183   0.975  0.00  0.00    +0.108 C 
ATOM     28  C   LIG    1        8.016  -1.152   1.500  0.00  0.00    +0.020 C 
ATOM     29  C   LIG    1        8.100  -1.989   0.221  0.00  0.00    +0.020 C 
ATOM     30  C   LIG    1        7.292  -1.250  -0.824  0.00  0.00    +0.108 C 
ENDBRANCH  23  24
ENDBRANCH   5  23
TORSDOF 7
