REMARK  Name = molecules/RDHQFKQIGNGIED-MRVPVSSYSA-N.pdb
REMARK                            x       y       z     vdW  Elec       q    Type
REMARK                         _______ _______ _______ _____ _____    ______ ____
ROOT
ATOM      1  C   LIG    1        0.707   0.198  -0.334  0.00  0.00    +0.171 C 
ENDROOT
BRANCH   1   2
ATOM      2  C   LIG    1       -0.361  -0.466   0.444  0.00  0.00    -0.030 C 
BRANCH   2   3
ATOM      3  N   LIG    1       -1.701  -0.348  -0.050  0.00  0.00    +0.377 N 
ATOM      4  C   LIG    1       -2.422  -1.505   0.514  0.00  0.00    -0.093 C 
ATOM      5  C   LIG    1       -2.397   0.828   0.426  0.00  0.00    -0.093 C 
ATOM      6  C   LIG    1       -1.838  -0.407  -1.465  0.00  0.00    -0.093 C 
ENDBRANCH   2   3
ENDBRANCH   1   2
BRANCH   1   7
ATOM      7  O   LIG    1        1.947  -0.064   0.350  0.00  0.00    -0.463 OA
BRANCH   7   8
ATOM      8  C   LIG    1        2.920  -0.786  -0.293  0.00  0.00    +0.304 C 
ATOM      9  C   LIG    1        4.232  -1.112   0.321  0.00  0.00    +0.136 C 
ATOM     10  O   LIG    1        2.679  -1.188  -1.459  0.00  0.00    -0.251 OA
ENDBRANCH   7   8
ENDBRANCH   1   7
BRANCH   1  11
ATOM     11  C   LIG    1        0.618   1.696  -0.420  0.00  0.00    +0.167 C 
BRANCH  11  12
ATOM     12  C   LIG    1        0.671   2.379   0.875  0.00  0.00    +0.359 C 
ATOM     13  O   LIG    1        0.795   1.747   1.941  0.00  0.00    -0.246 OA
ATOM     14  O   LIG    1        0.583   3.754   0.928  0.00  0.00    -0.246 OA
ENDBRANCH  11  12
ENDBRANCH   1  11
TORSDOF 6
