REMARK  Name = molecules/RDMOROXKXONCAL-UEKVPHQBSA-N.pdb
REMARK                            x       y       z     vdW  Elec       q    Type
REMARK                         _______ _______ _______ _____ _____    ______ ____
ROOT
ATOM      1  CA  LIG    1       -3.674   0.399  -0.082  0.00  0.00    +0.161 C 
ATOM      2  N   LIG    1       -2.568   1.283   0.010  0.00  0.00    -0.246 N 
ATOM      3  C   LIG    1       -1.766   2.257   0.656  0.00  0.00    +0.244 C 
ATOM      4  O   LIG    1       -1.919   2.928   1.708  0.00  0.00    -0.273 OA
ATOM      5  CA  LIG    1       -0.681   2.209  -0.349  0.00  0.00    +0.191 C 
ATOM      6  C   LIG    1       -1.630   1.340  -1.095  0.00  0.00    +0.169 C 
ATOM      7  S   LIG    1       -0.969  -0.341  -1.266  0.00  0.00    -0.128 S 
ATOM      8  C   LIG    1       -2.442  -1.391  -1.312  0.00  0.00    +0.146 C 
ATOM      9  C   LIG    1       -3.604  -0.782  -0.669  0.00  0.00    +0.135 C 
ENDROOT
BRANCH   5  10
ATOM     10  N   LIG    1        0.483   1.560   0.241  0.00  0.00    -0.300 N 
ATOM     11  H   LIG    1        0.381   0.656   0.743  0.00  0.00    +0.150 HD
ATOM     12  C   LIG    1        1.761   2.150   0.142  0.00  0.00    +0.235 C 
ATOM     13  O   LIG    1        1.808   3.273  -0.493  0.00  0.00    -0.274 OA
BRANCH  12  14
ATOM     14  CA  LIG    1        2.997   1.572   0.707  0.00  0.00    +0.164 C 
BRANCH  14  15
ATOM     15  C   LIG    1        3.335   0.221   0.191  0.00  0.00    -0.044 C 
ATOM     16  C   LIG    1        2.462  -0.958   0.476  0.00  0.00    +0.059 C 
ATOM     17  C   LIG    1        3.349  -2.165   0.558  0.00  0.00    -0.026 C 
ATOM     18  C   LIG    1        4.446  -2.299  -0.155  0.00  0.00    -0.027 C 
ATOM     19  C   LIG    1        4.826  -1.214  -1.081  0.00  0.00    +0.054 C 
ATOM     20  C   LIG    1        4.427   0.101  -0.534  0.00  0.00    -0.021 C 
ENDBRANCH  14  15
BRANCH  14  21
ATOM     21  N   LIG    1        4.135   2.438   0.503  0.00  0.00    -0.317 NA
ATOM     22  H1  LIG    1        4.170   3.211   1.206  0.00  0.00    +0.119 HD
ATOM     23  H2  LIG    1        4.080   2.856  -0.465  0.00  0.00    +0.119 HD
ENDBRANCH  14  21
ENDBRANCH  12  14
ENDBRANCH   5  10
BRANCH   1  24
ATOM     24  C   LIG    1       -4.930   0.845   0.513  0.00  0.00    +0.355 C 
ATOM     25  OXT LIG    1       -5.082   1.936   1.084  0.00  0.00    -0.244 OA
BRANCH  24  26
ATOM     26  O   LIG    1       -6.028   0.007   0.443  0.00  0.00    -0.476 OA
ATOM     27  H   LIG    1       -6.709  -0.098   1.171  0.00  0.00    +0.295 HD
ENDBRANCH  24  26
ENDBRANCH   1  24
BRANCH   9  28
ATOM     28  O   LIG    1       -4.763  -1.552  -0.687  0.00  0.00    -0.496 OA
ATOM     29  C   LIG    1       -4.673  -2.959  -0.520  0.00  0.00    +0.276 C 
ENDBRANCH   9  28
TORSDOF 7
