REMARK  Name = molecules/RDUHXGIIUDVSHR-LBPRGKRZSA-N.pdb
REMARK                            x       y       z     vdW  Elec       q    Type
REMARK                         _______ _______ _______ _____ _____    ______ ____
ROOT
ATOM      1  C   LIG    1       -1.293  -0.952   0.452  0.00  0.00    +0.158 C 
ENDROOT
BRANCH   1   2
ATOM      2  C   LIG    1       -2.528  -0.152   0.523  0.00  0.00    -0.018 A 
ATOM      3  C   LIG    1       -3.713  -0.779   0.846  0.00  0.00    +0.010 A 
ATOM      4  C   LIG    1       -4.918  -0.112   0.942  0.00  0.00    +0.046 A 
ATOM      5  C   LIG    1       -4.955   1.256   0.705  0.00  0.00    +0.117 A 
ATOM      6  C   LIG    1       -3.791   1.896   0.383  0.00  0.00    +0.046 A 
ATOM      7  C   LIG    1       -2.589   1.198   0.293  0.00  0.00    +0.010 A 
BRANCH   5   8
ATOM      8  O   LIG    1       -6.184   1.913   0.807  0.00  0.00    -0.507 OA
ATOM      9  H   LIG    1       -6.812   2.024   0.024  0.00  0.00    +0.292 HD
ENDBRANCH   5   8
ENDBRANCH   1   2
BRANCH   1  10
ATOM     10  O   LIG    1       -1.533  -2.092  -0.320  0.00  0.00    -0.386 OA
ATOM     11  H   LIG    1       -1.052  -2.046  -1.204  0.00  0.00    +0.210 HD
ENDBRANCH   1  10
BRANCH   1  12
ATOM     12  C   LIG    1       -0.184  -0.108  -0.071  0.00  0.00    +0.117 C 
BRANCH  12  13
ATOM     13  N   LIG    1        1.080  -0.817  -0.154  0.00  0.00    -0.313 NA
ATOM     14  H   LIG    1        1.378  -1.226   0.736  0.00  0.00    +0.122 HD
BRANCH  13  15
ATOM     15  C   LIG    1        2.061   0.136  -0.680  0.00  0.00    +0.081 C 
BRANCH  15  16
ATOM     16  C   LIG    1        3.383  -0.606  -0.766  0.00  0.00    +0.015 C 
BRANCH  16  17
ATOM     17  C   LIG    1        4.475   0.296  -1.303  0.00  0.00    -0.002 C 
ATOM     18  C   LIG    1        5.747  -0.530  -1.351  0.00  0.00    +0.004 C 
ENDBRANCH  16  17
ENDBRANCH  15  16
ENDBRANCH  13  15
ENDBRANCH  12  13
ENDBRANCH   1  12
TORSDOF 8
