REMARK  Name = molecules/RDVXUHOSYIBGBT-GWCFXTLKSA-N.pdb
REMARK                            x       y       z     vdW  Elec       q    Type
REMARK                         _______ _______ _______ _____ _____    ______ ____
ROOT
ATOM      1  C   LIG    1       -0.621   0.355  -0.237  0.00  0.00    +0.026 C 
ENDROOT
BRANCH   1   2
ATOM      2  C   LIG    1       -1.940  -0.374  -0.160  0.00  0.00    -0.041 A 
ATOM      3  C   LIG    1       -2.472  -0.748   1.056  0.00  0.00    +0.007 A 
ATOM      4  C   LIG    1       -3.685  -1.415   1.080  0.00  0.00    +0.048 A 
ATOM      5  C   LIG    1       -4.391  -1.724  -0.064  0.00  0.00    +0.152 A 
ATOM      6  C   LIG    1       -3.861  -1.350  -1.282  0.00  0.00    +0.165 A 
ATOM      7  F   LIG    1       -4.535  -1.640  -2.437  0.00  0.00    -0.202 F 
ATOM      8  C   LIG    1       -2.643  -0.681  -1.300  0.00  0.00    +0.046 A 
BRANCH   5   9
ATOM      9  O   LIG    1       -5.598  -2.393   0.052  0.00  0.00    -0.504 OA
ATOM     10  H   LIG    1       -6.178  -2.659  -0.710  0.00  0.00    +0.292 HD
ENDBRANCH   5   9
ENDBRANCH   1   2
BRANCH   1  11
ATOM     11  C   LIG    1        0.451  -0.536   0.271  0.00  0.00    +0.023 C 
ATOM     12  C   LIG    1        0.373  -1.850  -0.550  0.00  0.00    +0.013 C 
BRANCH  11  13
ATOM     13  C   LIG    1        1.818  -0.024   0.266  0.00  0.00    -0.041 A 
ATOM     14  C   LIG    1        2.624  -0.051   1.385  0.00  0.00    +0.007 A 
ATOM     15  C   LIG    1        3.928   0.430   1.355  0.00  0.00    +0.048 A 
ATOM     16  C   LIG    1        4.456   0.953   0.194  0.00  0.00    +0.152 A 
ATOM     17  C   LIG    1        3.658   0.984  -0.928  0.00  0.00    +0.165 A 
ATOM     18  F   LIG    1        4.199   1.503  -2.062  0.00  0.00    -0.202 F 
ATOM     19  C   LIG    1        2.370   0.502  -0.876  0.00  0.00    +0.046 A 
BRANCH  16  20
ATOM     20  O   LIG    1        5.776   1.443   0.155  0.00  0.00    -0.504 OA
ATOM     21  H   LIG    1        6.320   1.397   1.007  0.00  0.00    +0.292 HD
ENDBRANCH  16  20
ENDBRANCH  11  13
ENDBRANCH   1  11
BRANCH   1  22
ATOM     22  C   LIG    1       -0.782   1.685   0.385  0.00  0.00    +0.005 C 
ATOM     23  C   LIG    1        0.360   2.632   0.309  0.00  0.00    +0.004 C 
ENDBRANCH   1  22
TORSDOF 6
