REMARK  Name = molecules/REACBNMPQDINOF-ZDMPKJLCSA-N.pdb
REMARK                            x       y       z     vdW  Elec       q    Type
REMARK                         _______ _______ _______ _____ _____    ______ ____
ROOT
ATOM      1  C   LIG    1       -0.388  -0.623   0.714  0.00  0.00    +0.015 C 
ATOM      2  C   LIG    1       -0.539   0.090  -0.592  0.00  0.00    +0.008 C 
ATOM      3  C   LIG    1       -1.153   1.434  -0.325  0.00  0.00    +0.011 C 
ATOM      4  C   LIG    1       -2.526   1.373   0.218  0.00  0.00    +0.005 C 
ATOM      5  C   LIG    1       -3.433   0.344  -0.310  0.00  0.00    -0.000 C 
ATOM      6  C   LIG    1       -4.478  -0.076   0.734  0.00  0.00    +0.019 C 
ATOM      7  C   LIG    1       -5.112   1.079   1.398  0.00  0.00    +0.016 C 
ATOM      8  C   LIG    1       -6.601   1.033   1.534  0.00  0.00    +0.079 C 
ATOM      9  C   LIG    1       -7.269   0.381   0.395  0.00  0.00    +0.156 C 
ATOM     10  C   LIG    1       -6.651  -0.847  -0.109  0.00  0.00    +0.045 C 
ATOM     11  O   LIG    1       -8.303   0.836  -0.123  0.00  0.00    -0.293 OA
ATOM     12  C   LIG    1       -5.361  -1.029   0.063  0.00  0.00    -0.063 C 
ATOM     13  C   LIG    1       -4.770  -2.287  -0.462  0.00  0.00    +0.031 C 
ATOM     14  C   LIG    1       -3.679  -1.854  -1.451  0.00  0.00    +0.008 C 
ATOM     15  C   LIG    1       -2.722  -0.965  -0.685  0.00  0.00    -0.003 C 
ATOM     16  C   LIG    1        0.666   0.106  -1.442  0.00  0.00    +0.183 C 
ATOM     17  C   LIG    1        0.481  -0.927  -2.543  0.00  0.00    +0.045 C 
ATOM     18  C   LIG    1       -0.832  -1.644  -2.217  0.00  0.00    +0.008 C 
ATOM     19  C   LIG    1       -1.565  -0.595  -1.505  0.00  0.00    +0.002 C 
ENDROOT
BRANCH  16  20
ATOM     20  O   LIG    1        1.881  -0.066  -0.760  0.00  0.00    -0.460 OA
BRANCH  20  21
ATOM     21  C   LIG    1        2.915   0.817  -0.734  0.00  0.00    +0.317 C 
ATOM     22  O   LIG    1        2.791   1.895  -1.375  0.00  0.00    -0.250 OA
BRANCH  21  23
ATOM     23  C   LIG    1        4.195   0.642  -0.018  0.00  0.00    +0.086 C 
ATOM     24  C   LIG    1        3.866   0.484   1.454  0.00  0.00    +0.023 C 
ATOM     25  C   LIG    1        5.084   0.101   2.258  0.00  0.00    +0.012 C 
ATOM     26  C   LIG    1        6.280   0.163   1.341  0.00  0.00    -0.014 C 
ATOM     27  C   LIG    1        7.496  -0.184   2.117  0.00  0.00    +0.015 C 
ATOM     28  C   LIG    1        6.351   1.525   0.687  0.00  0.00    +0.012 C 
ATOM     29  C   LIG    1        6.049  -0.834   0.236  0.00  0.00    -0.024 C 
ATOM     30  C   LIG    1        5.143   1.770  -0.166  0.00  0.00    +0.023 C 
ATOM     31  C   LIG    1        4.888  -0.640  -0.419  0.00  0.00    -0.013 C 
ENDBRANCH  21  23
ENDBRANCH  20  21
ENDBRANCH  16  20
TORSDOF 3
