REMARK  Name = molecules/REFJWTPEDVJJIY-UHFFFAOYSA-N.pdb
REMARK                            x       y       z     vdW  Elec       q    Type
REMARK                         _______ _______ _______ _____ _____    ______ ____
ROOT
ATOM      1  O   LIG    1       -2.169  -0.647   2.662  0.00  0.00    -0.283 OA
ATOM      2  C   LIG    1       -1.680  -0.391   1.558  0.00  0.00    +0.238 A 
ATOM      3  C   LIG    1       -0.255  -0.393   1.501  0.00  0.00    +0.208 A 
ATOM      4  C   LIG    1        0.293  -0.108   0.296  0.00  0.00    +0.181 A 
ATOM      5  O   LIG    1       -0.504   0.149  -0.759  0.00  0.00    -0.451 OA
ATOM      6  C   LIG    1       -1.793   0.149  -0.709  0.00  0.00    +0.147 A 
ATOM      7  C   LIG    1       -2.554   0.428  -1.855  0.00  0.00    +0.092 A 
ATOM      8  C   LIG    1       -3.926   0.425  -1.785  0.00  0.00    +0.124 A 
ATOM      9  C   LIG    1       -4.610   0.157  -0.627  0.00  0.00    +0.091 A 
ATOM     10  C   LIG    1       -3.842  -0.121   0.516  0.00  0.00    +0.135 A 
ATOM     11  C   LIG    1       -2.467  -0.125   0.477  0.00  0.00    +0.109 A 
ENDROOT
BRANCH   4  12
ATOM     12  C   LIG    1        1.729  -0.061   0.043  0.00  0.00    +0.025 A 
ATOM     13  C   LIG    1        2.703   0.203   0.954  0.00  0.00    +0.060 A 
ATOM     14  C   LIG    1        4.067   0.142   0.636  0.00  0.00    +0.159 A 
ATOM     15  C   LIG    1        4.472  -0.191  -0.634  0.00  0.00    +0.158 A 
ATOM     16  C   LIG    1        3.490  -0.460  -1.570  0.00  0.00    +0.050 A 
ATOM     17  C   LIG    1        2.159  -0.402  -1.263  0.00  0.00    +0.015 A 
BRANCH  14  18
ATOM     18  O   LIG    1        5.029   0.412   1.577  0.00  0.00    -0.503 OA
ATOM     19  H   LIG    1        4.765   0.662   2.527  0.00  0.00    +0.292 HD
ENDBRANCH  14  18
BRANCH  15  20
ATOM     20  O   LIG    1        5.817  -0.264  -0.995  0.00  0.00    -0.503 OA
ATOM     21  H   LIG    1        6.548  -0.071  -0.323  0.00  0.00    +0.292 HD
ENDBRANCH  15  20
ENDBRANCH   4  12
BRANCH   3  22
ATOM     22  O   LIG    1        0.417  -0.683   2.636  0.00  0.00    -0.501 OA
ATOM     23  H   LIG    1        1.316  -0.806   2.879  0.00  0.00    +0.292 HD
ENDBRANCH   3  22
BRANCH  10  24
ATOM     24  O   LIG    1       -4.520  -0.381   1.643  0.00  0.00    -0.506 OA
ATOM     25  H   LIG    1       -4.294  -0.598   2.551  0.00  0.00    +0.292 HD
ENDBRANCH  10  24
BRANCH   8  26
ATOM     26  O   LIG    1       -4.611   0.712  -2.971  0.00  0.00    -0.507 OA
ATOM     27  H   LIG    1       -5.636   0.718  -2.955  0.00  0.00    +0.292 HD
ENDBRANCH   8  26
TORSDOF 6
