REMARK  Name = molecules/REQCZEXYDRLIBE-UHFFFAOYSA-N.pdb
REMARK                            x       y       z     vdW  Elec       q    Type
REMARK                         _______ _______ _______ _____ _____    ______ ____
ROOT
ATOM      1  C   LIG    1        1.494  -0.963  -0.413  0.00  0.00    +0.244 C 
ATOM      2  N   LIG    1        0.397  -0.275   0.150  0.00  0.00    -0.310 N 
ATOM      3  H   LIG    1        0.574   0.577   0.721  0.00  0.00    +0.149 HD
ATOM      4  O   LIG    1        1.274  -1.981  -1.106  0.00  0.00    -0.270 OA
ENDROOT
BRANCH   1   5
ATOM      5  C   LIG    1        2.852  -0.497  -0.192  0.00  0.00    +0.037 A 
ATOM      6  C   LIG    1        3.196   0.375   0.811  0.00  0.00    +0.015 A 
ATOM      7  C   LIG    1        4.477   0.813   1.005  0.00  0.00    +0.023 A 
ATOM      8  C   LIG    1        5.513   0.392   0.185  0.00  0.00    +0.025 A 
ATOM      9  C   LIG    1        5.186  -0.485  -0.829  0.00  0.00    +0.023 A 
ATOM     10  C   LIG    1        3.895  -0.918  -1.015  0.00  0.00    +0.015 A 
BRANCH   8  11
ATOM     11  N   LIG    1        6.840   0.836   0.369  0.00  0.00    -0.358 N 
ATOM     12  H   LIG    1        7.432   0.392   1.080  0.00  0.00    +0.142 HD
ATOM     13  H   LIG    1        7.201   1.605  -0.218  0.00  0.00    +0.142 HD
ENDBRANCH   8  11
ENDBRANCH   1   5
BRANCH   2  14
ATOM     14  C   LIG    1       -0.993  -0.735  -0.056  0.00  0.00    +0.120 C 
BRANCH  14  15
ATOM     15  C   LIG    1       -1.868   0.244   0.675  0.00  0.00    +0.103 C 
BRANCH  15  16
ATOM     16  N   LIG    1       -3.209  -0.062   0.627  0.00  0.00    -0.301 NA
BRANCH  16  17
ATOM     17  C   LIG    1       -4.096   0.838   1.322  0.00  0.00    +0.081 C 
ATOM     18  C   LIG    1       -4.050   2.160   0.555  0.00  0.00    +0.020 C 
ENDBRANCH  16  17
BRANCH  16  19
ATOM     19  C   LIG    1       -3.759  -1.232   0.139  0.00  0.00    +0.081 C 
ATOM     20  C   LIG    1       -3.662  -1.341  -1.359  0.00  0.00    +0.020 C 
ENDBRANCH  16  19
ENDBRANCH  15  16
ENDBRANCH  14  15
ENDBRANCH   2  14
TORSDOF 7
