REMARK  Name = molecules/REYUZOLYIOQRIG-UHFFFAOYSA-N.pdb
REMARK                            x       y       z     vdW  Elec       q    Type
REMARK                         _______ _______ _______ _____ _____    ______ ____
ROOT
ATOM      1  C   LIG    1        3.232  -0.910  -0.848  0.00  0.00    +0.204 A 
ATOM      2  C   LIG    1        3.237  -0.334   0.409  0.00  0.00    +0.166 A 
ATOM      3  C   LIG    1        4.030   0.768   0.691  0.00  0.00    +0.062 A 
ATOM      4  C   LIG    1        4.836   1.321  -0.275  0.00  0.00    +0.044 A 
ATOM      5  C   LIG    1        4.824   0.742  -1.520  0.00  0.00    +0.062 A 
ATOM      6  C   LIG    1        4.049  -0.354  -1.835  0.00  0.00    +0.166 A 
ENDROOT
BRANCH   4   7
ATOM      7  C   LIG    1        5.686   2.494   0.008  0.00  0.00    +0.242 C 
ATOM      8  N   LIG    1        5.728   3.111   1.254  0.00  0.00    -0.325 N 
ATOM      9  H   LIG    1        6.063   2.595   2.088  0.00  0.00    +0.145 HD
ATOM     10  H   LIG    1        5.427   4.095   1.371  0.00  0.00    +0.145 HD
ATOM     11  O   LIG    1        6.398   2.949  -0.921  0.00  0.00    -0.270 OA
ENDBRANCH   4   7
BRANCH   2  12
ATOM     12  O   LIG    1        2.457  -0.823   1.449  0.00  0.00    -0.491 OA
ATOM     13  C   LIG    1        2.453  -0.246   2.733  0.00  0.00    +0.277 C 
ENDBRANCH   2  12
BRANCH   6  14
ATOM     14  O   LIG    1        4.041  -0.936  -3.099  0.00  0.00    -0.491 OA
ATOM     15  C   LIG    1        4.879  -0.351  -4.082  0.00  0.00    +0.277 C 
ENDBRANCH   6  14
BRANCH   1  16
ATOM     16  O   LIG    1        2.434  -1.990  -1.066  0.00  0.00    -0.485 OA
BRANCH  16  17
ATOM     17  C   LIG    1        1.125  -2.021  -1.500  0.00  0.00    +0.229 C 
BRANCH  17  18
ATOM     18  C   LIG    1        0.144  -1.306  -0.615  0.00  0.00    +0.041 C 
BRANCH  18  19
ATOM     19  C   LIG    1       -1.227  -1.447  -1.250  0.00  0.00    +0.003 C 
BRANCH  19  20
ATOM     20  C   LIG    1       -2.294  -0.756  -0.430  0.00  0.00    +0.000 C 
BRANCH  20  21
ATOM     21  C   LIG    1       -3.614  -0.954  -1.143  0.00  0.00    +0.000 C 
BRANCH  21  22
ATOM     22  C   LIG    1       -4.754  -0.292  -0.392  0.00  0.00    -0.000 C 
BRANCH  22  23
ATOM     23  C   LIG    1       -4.905  -0.856   0.997  0.00  0.00    -0.000 C 
BRANCH  23  24
ATOM     24  C   LIG    1       -6.039  -0.201   1.745  0.00  0.00    -0.000 C 
BRANCH  24  25
ATOM     25  C   LIG    1       -5.832   1.296   1.895  0.00  0.00    -0.003 C 
ATOM     26  C   LIG    1       -4.565   1.621   2.649  0.00  0.00    +0.004 C 
ENDBRANCH  24  25
ENDBRANCH  23  24
ENDBRANCH  22  23
ENDBRANCH  21  22
ENDBRANCH  20  21
ENDBRANCH  19  20
ENDBRANCH  18  19
ENDBRANCH  17  18
ENDBRANCH  16  17
ENDBRANCH   1  16
TORSDOF 13
