REMARK  Name = molecules/RFUOEEHKHNHYHG-KKIOWIMLSA-J.pdb
REMARK                            x       y       z     vdW  Elec       q    Type
REMARK                         _______ _______ _______ _____ _____    ______ ____
ROOT
ATOM      1 BI   LIG    1       -0.930  -0.246   0.180  0.00  0.00    +0.000 Bi
ENDROOT
BRANCH   1   2
ATOM      2  O   LIG    1       -0.015  -0.055  -1.693  0.00  0.00    +0.000 OA
BRANCH   2   3
ATOM      3 BI   LIG    1        1.458  -1.535  -2.025  0.00  0.00    +0.000 Bi
BRANCH   3   4
ATOM      4  O   LIG    1        1.996  -1.493  -4.075  0.00  0.00    +0.000 OA
ATOM      5  H   LIG    1        1.802  -2.363  -4.527  0.00  0.00    +0.000 HD
ENDBRANCH   3   4
BRANCH   3   6
ATOM      6  O   LIG    1        3.139  -1.305  -0.765  0.00  0.00    +0.000 OA
BRANCH   6   7
ATOM      7  C   LIG    1        4.227  -0.521  -1.016  0.00  0.00    +0.000 C 
ATOM      8  O   LIG    1        4.232   0.133  -2.109  0.00  0.00    +0.000 OA
BRANCH   7   9
ATOM      9  C   LIG    1        5.370  -0.405  -0.093  0.00  0.00    +0.000 C 
ATOM     10  C   LIG    1        6.058  -1.711   0.169  0.00  0.00    +0.000 C 
ATOM     11  C   LIG    1        7.460  -1.214   0.564  0.00  0.00    +0.000 C 
ATOM     12  C   LIG    1        7.415  -0.318   1.759  0.00  0.00    +0.000 C 
ATOM     13  C   LIG    1        8.428  -2.349   0.685  0.00  0.00    +0.000 C 
ATOM     14  C   LIG    1        7.684  -0.413  -0.731  0.00  0.00    +0.000 C 
ATOM     15  C   LIG    1        8.948   0.320  -0.766  0.00  0.00    +0.000 C 
ATOM     16  C   LIG    1        7.506  -1.490  -1.754  0.00  0.00    +0.000 C 
ATOM     17  C   LIG    1        6.372  -2.344  -1.163  0.00  0.00    +0.000 C 
ATOM     18  C   LIG    1        6.454   0.422  -0.733  0.00  0.00    +0.000 C 
ATOM     19  O   LIG    1        6.387   1.547  -1.175  0.00  0.00    +0.000 OA
ENDBRANCH   7   9
ENDBRANCH   6   7
ENDBRANCH   3   6
ENDBRANCH   2   3
ENDBRANCH   1   2
BRANCH   1  20
ATOM     20  O   LIG    1       -1.578   1.635   0.893  0.00  0.00    +0.000 OA
BRANCH  20  21
ATOM     21  C   LIG    1       -2.310   2.553   0.179  0.00  0.00    +0.000 C 
ATOM     22  O   LIG    1       -2.619   2.242  -1.000  0.00  0.00    +0.000 OA
BRANCH  21  23
ATOM     23  C   LIG    1       -2.753   3.860   0.692  0.00  0.00    +0.000 C 
ATOM     24  C   LIG    1       -1.604   4.747   1.111  0.00  0.00    +0.000 C 
ATOM     25  C   LIG    1       -2.368   6.084   1.180  0.00  0.00    +0.000 C 
ATOM     26  C   LIG    1       -3.540   5.999   2.102  0.00  0.00    +0.000 C 
ATOM     27  C   LIG    1       -1.451   7.227   1.461  0.00  0.00    +0.000 C 
ATOM     28  C   LIG    1       -2.809   6.051  -0.294  0.00  0.00    +0.000 C 
ATOM     29  C   LIG    1       -3.677   7.157  -0.681  0.00  0.00    +0.000 C 
ATOM     30  C   LIG    1       -1.466   5.993  -0.970  0.00  0.00    +0.000 C 
ATOM     31  C   LIG    1       -0.714   5.011  -0.072  0.00  0.00    +0.000 C 
ATOM     32  C   LIG    1       -3.404   4.697  -0.355  0.00  0.00    +0.000 C 
ATOM     33  O   LIG    1       -4.273   4.359  -1.136  0.00  0.00    +0.000 OA
ENDBRANCH  21  23
ENDBRANCH  20  21
ENDBRANCH   1  20
BRANCH   1  34
ATOM     34  O   LIG    1       -2.422  -1.746   0.247  0.00  0.00    +0.000 OA
BRANCH  34  35
ATOM     35  C   LIG    1       -3.724  -1.580  -0.121  0.00  0.00    +0.000 C 
ATOM     36  O   LIG    1       -4.092  -0.466  -0.535  0.00  0.00    +0.000 OA
BRANCH  35  37
ATOM     37  C   LIG    1       -4.682  -2.681  -0.039  0.00  0.00    +0.000 C 
ATOM     38  C   LIG    1       -4.713  -3.327   1.330  0.00  0.00    +0.000 C 
ATOM     39  O   LIG    1       -4.670  -2.771   2.406  0.00  0.00    +0.000 OA
ATOM     40  C   LIG    1       -4.809  -4.793   1.125  0.00  0.00    +0.000 C 
ATOM     41  C   LIG    1       -5.533  -5.547   2.143  0.00  0.00    +0.000 C 
ATOM     42  C   LIG    1       -3.419  -5.281   0.794  0.00  0.00    +0.000 C 
ATOM     43  C   LIG    1       -3.161  -4.556  -0.537  0.00  0.00    +0.000 C 
ATOM     44  C   LIG    1       -5.447  -4.831  -0.273  0.00  0.00    +0.000 C 
ATOM     45  C   LIG    1       -6.816  -4.240  -0.268  0.00  0.00    +0.000 C 
ATOM     46  C   LIG    1       -5.423  -6.181  -0.885  0.00  0.00    +0.000 C 
ATOM     47  C   LIG    1       -4.424  -3.859  -0.903  0.00  0.00    +0.000 C 
ENDBRANCH  35  37
ENDBRANCH  34  35
ENDBRANCH   1  34
TORSDOF 12
