REMARK  Name = molecules/RFWTZQAOOLFXAY-BZDYCCQFSA-N.pdb
REMARK                            x       y       z     vdW  Elec       q    Type
REMARK                         _______ _______ _______ _____ _____    ______ ____
ROOT
ATOM      1  C   LIG    1       -0.904  -0.706  -0.885  0.00  0.00    +0.015 C 
ATOM      2  C   LIG    1       -0.745  -0.046   0.443  0.00  0.00    +0.008 C 
ATOM      3  C   LIG    1       -1.350  -0.897   1.522  0.00  0.00    +0.011 C 
ATOM      4  C   LIG    1       -2.826  -0.934   1.547  0.00  0.00    +0.009 C 
ATOM      5  C   LIG    1       -3.563   0.236   1.005  0.00  0.00    +0.023 C 
ATOM      6  C   LIG    1       -4.897  -0.122   0.461  0.00  0.00    -0.041 A 
ATOM      7  C   LIG    1       -5.531  -1.291   0.831  0.00  0.00    +0.008 A 
ATOM      8  C   LIG    1       -6.780  -1.646   0.333  0.00  0.00    +0.046 A 
ATOM      9  C   LIG    1       -7.373  -0.772  -0.561  0.00  0.00    +0.117 A 
ATOM     10  C   LIG    1       -6.738   0.395  -0.929  0.00  0.00    +0.049 A 
ATOM     11  C   LIG    1       -5.487   0.744  -0.426  0.00  0.00    -0.040 A 
ATOM     12  C   LIG    1       -4.920   2.018  -0.899  0.00  0.00    +0.036 C 
ATOM     13  C   LIG    1       -3.567   2.311  -0.338  0.00  0.00    +0.009 C 
ATOM     14  C   LIG    1       -2.828   1.027  -0.036  0.00  0.00    +0.000 C 
ATOM     15  C   LIG    1        0.677   0.326   0.662  0.00  0.00    +0.183 C 
ATOM     16  C   LIG    1        0.795   1.793   0.222  0.00  0.00    +0.045 C 
ATOM     17  C   LIG    1       -0.599   2.173  -0.282  0.00  0.00    +0.008 C 
ATOM     18  C   LIG    1       -1.461   1.291   0.530  0.00  0.00    +0.002 C 
ENDROOT
BRANCH   9  19
ATOM     19  O   LIG    1       -8.634  -1.074  -1.100  0.00  0.00    -0.507 OA
ATOM     20  H   LIG    1       -8.687  -1.613  -1.976  0.00  0.00    +0.292 HD
ENDBRANCH   9  19
BRANCH  15  21
ATOM     21  O   LIG    1        1.536  -0.395  -0.199  0.00  0.00    -0.461 OA
BRANCH  21  22
ATOM     22  C   LIG    1        2.613  -1.104   0.312  0.00  0.00    +0.307 C 
ATOM     23  O   LIG    1        2.773  -1.065   1.560  0.00  0.00    -0.251 OA
BRANCH  22  24
ATOM     24  C   LIG    1        3.542  -1.877  -0.558  0.00  0.00    +0.120 C 
BRANCH  24  25
ATOM     25  C   LIG    1        4.805  -1.078  -0.846  0.00  0.00    +0.011 C 
BRANCH  25  26
ATOM     26  C   LIG    1        5.536  -0.741   0.435  0.00  0.00    +0.001 C 
BRANCH  26  27
ATOM     27  C   LIG    1        6.782   0.044   0.197  0.00  0.00    -0.000 C 
BRANCH  27  28
ATOM     28  C   LIG    1        7.786  -0.682  -0.672  0.00  0.00    -0.003 C 
ATOM     29  C   LIG    1        8.985   0.266  -0.807  0.00  0.00    +0.004 C 
ENDBRANCH  27  28
ENDBRANCH  26  27
ENDBRANCH  25  26
ENDBRANCH  24  25
ENDBRANCH  22  24
ENDBRANCH  21  22
ENDBRANCH  15  21
TORSDOF 8
