REMARK  Name = molecules/RFWZESUMWJKKRN-UHFFFAOYSA-N.pdb
REMARK                            x       y       z     vdW  Elec       q    Type
REMARK                         _______ _______ _______ _____ _____    ______ ____
ROOT
ATOM      1  N   LIG    1       -0.228   1.226  -0.895  0.00  0.00    -0.299 NA
ATOM      2  C   LIG    1       -0.499   1.165   0.522  0.00  0.00    +0.103 C 
ATOM      3  C   LIG    1       -1.585   0.174   0.858  0.00  0.00    +0.120 C 
ATOM      4  N   LIG    1       -2.791   0.360   0.055  0.00  0.00    -0.327 N 
ATOM      5  C   LIG    1       -2.595   0.961  -1.223  0.00  0.00    +0.120 C 
ATOM      6  C   LIG    1       -1.189   0.495  -1.677  0.00  0.00    +0.103 C 
ENDROOT
BRANCH   4   7
ATOM      7  C   LIG    1       -3.996  -0.103   0.633  0.00  0.00    +0.033 A 
ATOM      8  C   LIG    1       -3.937  -1.007   1.704  0.00  0.00    +0.023 A 
ATOM      9  C   LIG    1       -5.047  -1.533   2.307  0.00  0.00    +0.002 A 
ATOM     10  C   LIG    1       -6.296  -1.183   1.869  0.00  0.00    +0.000 A 
ATOM     11  C   LIG    1       -6.384  -0.304   0.829  0.00  0.00    +0.005 A 
ATOM     12  C   LIG    1       -5.257   0.239   0.207  0.00  0.00    -0.029 A 
ATOM     13  C   LIG    1       -5.485   1.212  -0.911  0.00  0.00    +0.045 C 
ENDBRANCH   4   7
BRANCH   1  14
ATOM     14  C   LIG    1        1.123   0.919  -1.228  0.00  0.00    +0.092 C 
BRANCH  14  15
ATOM     15  C   LIG    1        1.452  -0.555  -0.959  0.00  0.00    +0.091 C 
BRANCH  15  16
ATOM     16  C   LIG    1        2.894  -0.802  -1.332  0.00  0.00    +0.135 A 
ATOM     17  N   LIG    1        3.969  -0.686  -0.549  0.00  0.00    -0.315 N 
ATOM     18  C   LIG    1        4.100  -0.304   0.838  0.00  0.00    +0.125 C 
ATOM     19  C   LIG    1        5.339   0.599   0.888  0.00  0.00    +0.022 C 
ATOM     20  C   LIG    1        6.530  -0.284   0.639  0.00  0.00    +0.009 C 
ATOM     21  C   LIG    1        6.433  -0.964  -0.683  0.00  0.00    +0.076 C 
ATOM     22  C   LIG    1        5.054  -0.986  -1.235  0.00  0.00    +0.133 A 
ATOM     23  N   LIG    1        4.646  -1.296  -2.476  0.00  0.00    -0.134 NA
ATOM     24  N   LIG    1        3.336  -1.188  -2.545  0.00  0.00    -0.134 NA
ENDBRANCH  15  16
ENDBRANCH  14  15
ENDBRANCH   1  14
TORSDOF 4
