REMARK  Name = molecules/RGEVWUKXWFOAID-UHFFFAOYSA-N.pdb
REMARK                            x       y       z     vdW  Elec       q    Type
REMARK                         _______ _______ _______ _____ _____    ______ ____
ROOT
ATOM      1  C   LIG    1       -0.335  -0.140  -0.360  0.00  0.00    +0.104 C 
ATOM      2  C   LIG    1        0.311  -1.202   0.436  0.00  0.00    +0.226 C 
ATOM      3  N   LIG    1        1.623  -1.035   1.015  0.00  0.00    -0.314 N 
ATOM      4  H   LIG    1        1.909  -1.583   1.857  0.00  0.00    +0.149 HD
ATOM      5  C   LIG    1        2.586  -0.123   0.472  0.00  0.00    +0.112 C 
ATOM      6  C   LIG    1        1.958   1.080  -0.179  0.00  0.00    +0.094 C 
ATOM      7  O   LIG    1       -0.225  -2.319   0.669  0.00  0.00    -0.275 OA
ATOM      8  C   LIG    1        0.718   0.792  -0.910  0.00  0.00    +0.150 C 
ATOM      9  O   LIG    1        0.550   1.341  -2.009  0.00  0.00    -0.296 OA
ENDROOT
BRANCH   1  10
ATOM     10  C   LIG    1       -1.110  -0.639  -1.531  0.00  0.00    +0.020 C 
ATOM     11  C   LIG    1       -2.305  -1.464  -1.214  0.00  0.00    +0.005 C 
ENDBRANCH   1  10
BRANCH   1  12
ATOM     12  C   LIG    1       -1.257   0.725   0.491  0.00  0.00    +0.020 C 
ATOM     13  C   LIG    1       -0.575   1.281   1.701  0.00  0.00    +0.005 C 
ENDBRANCH   1  12
TORSDOF 2
