REMARK  Name = molecules/RGHNJXZEOKUKBD-SQOUGZDYSA-N.pdb
REMARK                            x       y       z     vdW  Elec       q    Type
REMARK                         _______ _______ _______ _____ _____    ______ ____
ROOT
ATOM      1  C   LIG    1        0.344   0.833  -0.373  0.00  0.00    +0.185 C 
ENDROOT
BRANCH   1   2
ATOM      2  O   LIG    1        0.401   1.077  -1.722  0.00  0.00    -0.386 OA
ATOM      3  H   LIG    1        0.404   2.032  -1.934  0.00  0.00    +0.210 HD
ENDBRANCH   1   2
BRANCH   1   4
ATOM      4  C   LIG    1       -0.280  -0.472  -0.019  0.00  0.00    +0.177 C 
BRANCH   4   5
ATOM      5  O   LIG    1        0.434  -1.544  -0.582  0.00  0.00    -0.386 OA
ATOM      6  H   LIG    1        0.156  -2.370  -0.103  0.00  0.00    +0.210 HD
ENDBRANCH   4   5
BRANCH   4   7
ATOM      7  C   LIG    1       -1.704  -0.617  -0.441  0.00  0.00    +0.171 C 
BRANCH   7   8
ATOM      8  O   LIG    1       -1.824  -0.585  -1.839  0.00  0.00    -0.387 OA
ATOM      9  H   LIG    1       -2.039  -1.475  -2.195  0.00  0.00    +0.210 HD
ENDBRANCH   7   8
BRANCH   7  10
ATOM     10  C   LIG    1       -2.622   0.427   0.110  0.00  0.00    +0.189 C 
BRANCH  10  11
ATOM     11  O   LIG    1       -2.621   0.524   1.479  0.00  0.00    -0.392 OA
ATOM     12  H   LIG    1       -1.717   0.524   1.872  0.00  0.00    +0.210 HD
ENDBRANCH  10  11
ENDBRANCH   7  10
ENDBRANCH   4   7
ENDBRANCH   1   4
BRANCH   1  13
ATOM     13  C   LIG    1        1.744   0.849   0.253  0.00  0.00    +0.254 C 
BRANCH  13  14
ATOM     14  O   LIG    1        1.645   0.599   1.620  0.00  0.00    -0.378 OA
ATOM     15  H   LIG    1        2.426   0.127   1.990  0.00  0.00    +0.211 HD
ENDBRANCH  13  14
BRANCH  13  16
ATOM     16  C   LIG    1        2.651  -0.095  -0.422  0.00  0.00    +0.336 C 
ATOM     17  O   LIG    1        2.862  -0.021  -1.656  0.00  0.00    -0.248 OA
BRANCH  16  18
ATOM     18  O   LIG    1        3.297  -1.094   0.286  0.00  0.00    -0.479 OA
ATOM     19  H   LIG    1        2.848  -1.620   1.024  0.00  0.00    +0.295 HD
ENDBRANCH  16  18
ENDBRANCH  13  16
ENDBRANCH   1  13
TORSDOF 11
