REMARK  Name = molecules/RGLYKWWBQGJZGM-ISLYRVAYSA-N.pdb
REMARK                            x       y       z     vdW  Elec       q    Type
REMARK                         _______ _______ _______ _____ _____    ______ ____
ROOT
ATOM      1  C   LIG    1       -0.376  -0.452   0.162  0.00  0.00    -0.037 C 
ATOM      2  C   LIG    1        0.364   0.466  -0.331  0.00  0.00    -0.037 C 
ENDROOT
BRANCH   1   3
ATOM      3  C   LIG    1       -1.841  -0.485   0.058  0.00  0.00    -0.021 A 
ATOM      4  C   LIG    1       -2.480  -0.686   1.287  0.00  0.00    +0.012 A 
ATOM      5  C   LIG    1       -3.852  -0.731   1.278  0.00  0.00    +0.046 A 
ATOM      6  C   LIG    1       -4.581  -0.587   0.116  0.00  0.00    +0.117 A 
ATOM      7  C   LIG    1       -3.915  -0.390  -1.076  0.00  0.00    +0.046 A 
ATOM      8  C   LIG    1       -2.537  -0.341  -1.097  0.00  0.00    +0.012 A 
BRANCH   6   9
ATOM      9  O   LIG    1       -5.979  -0.642   0.161  0.00  0.00    -0.507 OA
ATOM     10  H   LIG    1       -6.476   0.226   0.305  0.00  0.00    +0.292 HD
ENDBRANCH   6   9
ENDBRANCH   1   3
BRANCH   2  11
ATOM     11  C   LIG    1        1.843   0.484  -0.239  0.00  0.00    -0.021 A 
ATOM     12  C   LIG    1        2.403   0.382   1.032  0.00  0.00    +0.012 A 
ATOM     13  C   LIG    1        3.758   0.364   1.185  0.00  0.00    +0.046 A 
ATOM     14  C   LIG    1        4.578   0.449   0.061  0.00  0.00    +0.117 A 
ATOM     15  C   LIG    1        4.027   0.552  -1.215  0.00  0.00    +0.046 A 
ATOM     16  C   LIG    1        2.652   0.568  -1.348  0.00  0.00    +0.012 A 
BRANCH  14  17
ATOM     17  O   LIG    1        5.939   0.429   0.209  0.00  0.00    -0.507 OA
ATOM     18  H   LIG    1        6.386   0.355   1.109  0.00  0.00    +0.292 HD
ENDBRANCH  14  17
ENDBRANCH   2  11
BRANCH   1  19
ATOM     19  C   LIG    1        0.215  -1.654   0.839  0.00  0.00    +0.032 C 
ATOM     20  C   LIG    1       -0.380  -2.846   0.057  0.00  0.00    +0.009 C 
ENDBRANCH   1  19
BRANCH   2  21
ATOM     21  C   LIG    1       -0.225   1.657  -0.997  0.00  0.00    +0.032 C 
ATOM     22  C   LIG    1        0.361   2.923  -0.322  0.00  0.00    +0.009 C 
ENDBRANCH   2  21
TORSDOF 6
