REMARK  Name = molecules/RGUQWGXAYZNLMI-UHFFFAOYSA-N.pdb
REMARK                            x       y       z     vdW  Elec       q    Type
REMARK                         _______ _______ _______ _____ _____    ______ ____
ROOT
ATOM      1  O   LIG    1        2.566   2.510   1.483  0.00  0.00    -0.150 OA
ATOM      2  S   LIG    1        2.556   1.736   0.196  0.00  0.00    +0.075 S 
ATOM      3  C   LIG    1        1.222   0.613   0.147  0.00  0.00    +0.136 A 
ATOM      4  C   LIG    1       -0.062   1.058   0.298  0.00  0.00    +0.060 A 
ATOM      5  C   LIG    1       -1.150   0.212   0.267  0.00  0.00    +0.119 A 
ATOM      6  C   LIG    1       -0.901  -1.128   0.075  0.00  0.00    +0.083 A 
ATOM      7  C   LIG    1        0.388  -1.570  -0.076  0.00  0.00    +0.044 A 
ATOM      8  C   LIG    1        1.487  -0.717  -0.045  0.00  0.00    +0.093 A 
ATOM      9  N   LIG    1        2.797  -1.263  -0.211  0.00  0.00    -0.237 NA
ATOM     10  C   LIG    1        3.880  -0.588  -0.201  0.00  0.00    +0.203 C 
ATOM     11  N   LIG    1        3.982   0.812  -0.027  0.00  0.00    -0.206 N 
ATOM     12  H   LIG    1        4.899   1.260  -0.035  0.00  0.00    +0.175 HD
ATOM     13  O   LIG    1        2.412   2.659  -0.982  0.00  0.00    -0.150 OA
ENDROOT
BRANCH   6  14
ATOM     14  C   LIG    1       -1.979  -2.134   0.024  0.00  0.00    +0.419 C 
ATOM     15  F   LIG    1       -2.658  -2.176   1.234  0.00  0.00    -0.166 F 
ATOM     16  F   LIG    1       -1.436  -3.396  -0.165  0.00  0.00    -0.166 F 
ATOM     17  F   LIG    1       -2.848  -1.955  -1.039  0.00  0.00    -0.166 F 
ENDBRANCH   6  14
BRANCH   5  18
ATOM     18  S   LIG    1       -2.757   0.800   0.459  0.00  0.00    +0.057 S 
ATOM     19  O   LIG    1       -3.406   0.285   1.726  0.00  0.00    -0.153 OA
ATOM     20  O   LIG    1       -2.704   2.312   0.631  0.00  0.00    -0.153 OA
BRANCH  18  21
ATOM     21  N   LIG    1       -3.736   0.493  -0.912  0.00  0.00    -0.203 NA
ATOM     22  H   LIG    1       -4.508   1.194  -0.921  0.00  0.00    +0.144 HD
ATOM     23  H   LIG    1       -3.218   0.603  -1.808  0.00  0.00    +0.144 HD
ENDBRANCH  18  21
ENDBRANCH   5  18
TORSDOF 3
