REMARK  Name = molecules/RGVPOXRFEPSFGH-AWEZNQCLSA-N.pdb
REMARK                            x       y       z     vdW  Elec       q    Type
REMARK                         _______ _______ _______ _____ _____    ______ ____
ROOT
ATOM      1  C   LIG    1        1.321  -0.009   0.476  0.00  0.00    +0.089 C 
ATOM      2  N   LIG    1        1.025   1.368   0.669  0.00  0.00    -0.309 NA
ATOM      3  H   LIG    1        1.111   1.668   1.683  0.00  0.00    +0.123 HD
ATOM      4  C   LIG    1        1.913   2.255  -0.066  0.00  0.00    +0.086 C 
ATOM      5  C   LIG    1        3.294   2.046   0.519  0.00  0.00    +0.050 C 
ATOM      6  C   LIG    1        3.684   0.646   0.236  0.00  0.00    -0.038 A 
ATOM      7  C   LIG    1        4.999   0.356  -0.003  0.00  0.00    +0.053 A 
ATOM      8  C   LIG    1        5.383  -0.919  -0.264  0.00  0.00    +0.158 A 
ATOM      9  C   LIG    1        4.422  -1.917  -0.285  0.00  0.00    +0.159 A 
ATOM     10  C   LIG    1        3.079  -1.638  -0.043  0.00  0.00    +0.054 A 
ATOM     11  C   LIG    1        2.733  -0.334   0.217  0.00  0.00    -0.023 A 
ENDROOT
BRANCH   9  12
ATOM     12  O   LIG    1        4.851  -3.206  -0.555  0.00  0.00    -0.503 OA
ATOM     13  H   LIG    1        4.226  -4.000  -0.592  0.00  0.00    +0.292 HD
ENDBRANCH   9  12
BRANCH   8  14
ATOM     14  O   LIG    1        6.732  -1.222  -0.510  0.00  0.00    -0.503 OA
ATOM     15  H   LIG    1        7.397  -0.479  -0.488  0.00  0.00    +0.292 HD
ENDBRANCH   8  14
BRANCH   1  16
ATOM     16  C   LIG    1        0.418  -0.676  -0.539  0.00  0.00    +0.058 C 
BRANCH  16  17
ATOM     17  C   LIG    1       -1.008  -0.371  -0.310  0.00  0.00    -0.038 A 
ATOM     18  C   LIG    1       -1.771  -1.183   0.506  0.00  0.00    +0.053 A 
ATOM     19  C   LIG    1       -3.123  -0.914   0.738  0.00  0.00    +0.165 A 
ATOM     20  C   LIG    1       -3.713   0.190   0.138  0.00  0.00    +0.204 A 
ATOM     21  C   LIG    1       -2.932   0.990  -0.676  0.00  0.00    +0.165 A 
ATOM     22  C   LIG    1       -1.591   0.728  -0.909  0.00  0.00    +0.053 A 
BRANCH  19  23
ATOM     23  O   LIG    1       -3.905  -1.718   1.554  0.00  0.00    -0.491 OA
ATOM     24  C   LIG    1       -3.326  -2.854   2.181  0.00  0.00    +0.277 C 
ENDBRANCH  19  23
BRANCH  20  25
ATOM     25  O   LIG    1       -5.046   0.512   0.326  0.00  0.00    -0.488 OA
ATOM     26  C   LIG    1       -6.098   0.056  -0.467  0.00  0.00    +0.277 C 
ENDBRANCH  20  25
BRANCH  21  27
ATOM     27  O   LIG    1       -3.550   2.103  -1.274  0.00  0.00    -0.491 OA
ATOM     28  C   LIG    1       -2.800   2.956  -2.115  0.00  0.00    +0.277 C 
ENDBRANCH  21  27
ENDBRANCH  16  17
ENDBRANCH   1  16
TORSDOF 7
