REMARK  Name = molecules/RHLJLALHBZGAFM-UHFFFAOYSA-N.pdb
REMARK                            x       y       z     vdW  Elec       q    Type
REMARK                         _______ _______ _______ _____ _____    ______ ____
ROOT
ATOM      1  C   LIG    1       -2.185   1.160   1.131  0.00  0.00    +0.129 A 
ATOM      2  N   LIG    1       -1.156   0.320   1.336  0.00  0.00    -0.199 NA
ATOM      3  C   LIG    1       -0.786  -0.574   0.403  0.00  0.00    +0.220 A 
ATOM      4  N   LIG    1       -1.481  -0.596  -0.744  0.00  0.00    -0.214 NA
ATOM      5  C   LIG    1       -2.516   0.218  -1.006  0.00  0.00    +0.082 A 
ATOM      6  C   LIG    1       -3.231   0.193  -2.190  0.00  0.00    +0.078 A 
ATOM      7  C   LIG    1       -4.290   1.026  -2.456  0.00  0.00    +0.164 A 
ATOM      8  C   LIG    1       -4.655   1.941  -1.475  0.00  0.00    +0.162 A 
ATOM      9  C   LIG    1       -3.962   1.995  -0.278  0.00  0.00    +0.062 A 
ATOM     10  C   LIG    1       -2.900   1.138  -0.047  0.00  0.00    +0.044 A 
ENDROOT
BRANCH   3  11
ATOM     11  N   LIG    1        0.314  -1.458   0.646  0.00  0.00    -0.298 N 
ATOM     12  C   LIG    1        0.956  -1.289   1.934  0.00  0.00    +0.127 C 
ATOM     13  C   LIG    1        1.961  -0.169   1.772  0.00  0.00    +0.126 C 
ATOM     14  N   LIG    1        2.957  -0.631   0.797  0.00  0.00    -0.300 N 
ATOM     15  C   LIG    1        4.304  -0.684   1.238  0.00  0.00    +0.216 C 
ATOM     16  O   LIG    1        5.183  -1.077   0.433  0.00  0.00    -0.276 OA
ATOM     17  C   LIG    1        2.730  -1.033  -0.549  0.00  0.00    +0.109 C 
ATOM     18  C   LIG    1        2.127  -2.413  -0.694  0.00  0.00    +0.038 C 
ATOM     19  C   LIG    1        0.636  -2.395  -0.421  0.00  0.00    +0.109 C 
BRANCH  15  20
ATOM     20  C   LIG    1        4.673  -0.280   2.636  0.00  0.00    +0.096 C 
BRANCH  20  21
ATOM     21  C   LIG    1        6.166  -0.458   2.782  0.00  0.00    +0.006 C 
ATOM     22  C   LIG    1        6.595  -1.881   2.553  0.00  0.00    +0.004 C 
ENDBRANCH  20  21
ENDBRANCH  15  20
ENDBRANCH   3  11
BRANCH   1  23
ATOM     23  N   LIG    1       -2.569   2.100   2.125  0.00  0.00    -0.343 N 
ATOM     24  H   LIG    1       -3.016   1.739   2.992  0.00  0.00    +0.144 HD
ATOM     25  H   LIG    1       -2.413   3.118   2.003  0.00  0.00    +0.144 HD
ENDBRANCH   1  23
BRANCH   8  26
ATOM     26  O   LIG    1       -5.717   2.801  -1.703  0.00  0.00    -0.491 OA
ATOM     27  C   LIG    1       -6.108   3.738  -0.727  0.00  0.00    +0.277 C 
ENDBRANCH   8  26
BRANCH   7  28
ATOM     28  O   LIG    1       -5.019   1.026  -3.617  0.00  0.00    -0.491 OA
ATOM     29  C   LIG    1       -4.822   0.195  -4.721  0.00  0.00    +0.277 C 
ENDBRANCH   7  28
TORSDOF 6
