REMARK  Name = molecules/RHQSNARBXHRBNP-UHFFFAOYSA-N.pdb
REMARK                            x       y       z     vdW  Elec       q    Type
REMARK                         _______ _______ _______ _____ _____    ______ ____
ROOT
ATOM      1  N   LIG    1        1.313  -0.523   0.014  0.00  0.00    -0.168 N 
ATOM      2  H   LIG    1        1.414  -0.878   1.002  0.00  0.00    +0.178 HD
ATOM      3  C   LIG    1        0.146   0.269  -0.340  0.00  0.00    +0.333 C 
ATOM      4  N   LIG    1       -0.803   0.532   0.605  0.00  0.00    -0.231 N 
ATOM      5  H   LIG    1       -0.589   0.100   1.599  0.00  0.00    +0.171 HD
ATOM      6  O   LIG    1        0.155   0.625  -1.536  0.00  0.00    -0.250 OA
ENDROOT
BRANCH   4   7
ATOM      7  N   LIG    1       -1.956   1.221   0.550  0.00  0.00    -0.226 NA
ATOM      8  C   LIG    1       -2.987   0.659   1.439  0.00  0.00    +0.105 C 
ATOM      9  C   LIG    1       -3.704  -0.554   1.178  0.00  0.00    +0.017 C 
ATOM     10  C   LIG    1       -5.036  -0.617   0.423  0.00  0.00    +0.001 C 
ATOM     11  C   LIG    1       -4.863   0.041  -1.004  0.00  0.00    +0.001 C 
ATOM     12  C   LIG    1       -3.704   0.809  -0.884  0.00  0.00    +0.017 C 
ATOM     13  C   LIG    1       -2.518   1.564  -0.756  0.00  0.00    +0.105 C 
ENDBRANCH   4   7
BRANCH   1  14
ATOM     14  S   LIG    1        2.551  -0.929  -1.088  0.00  0.00    +0.076 S 
ATOM     15  O   LIG    1        2.497  -2.369  -1.538  0.00  0.00    -0.150 OA
ATOM     16  O   LIG    1        2.437  -0.087  -2.347  0.00  0.00    -0.150 OA
BRANCH  14  17
ATOM     17  C   LIG    1        4.114  -0.607  -0.391  0.00  0.00    +0.109 A 
ATOM     18  C   LIG    1        4.598  -1.278   0.713  0.00  0.00    +0.030 A 
ATOM     19  C   LIG    1        5.839  -0.986   1.247  0.00  0.00    +0.022 A 
ATOM     20  C   LIG    1        6.646  -0.017   0.703  0.00  0.00    +0.041 A 
ATOM     21 CL   LIG    1        8.229   0.376   1.348  0.00  0.00    -0.084 Cl
ATOM     22  C   LIG    1        6.175   0.673  -0.414  0.00  0.00    +0.022 A 
ATOM     23  C   LIG    1        4.945   0.367  -0.923  0.00  0.00    +0.030 A 
ENDBRANCH  14  17
ENDBRANCH   1  14
TORSDOF 3
