REMARK  Name = molecules/RHUWRJWFHUKVED-UHFFFAOYSA-N.pdb
REMARK                            x       y       z     vdW  Elec       q    Type
REMARK                         _______ _______ _______ _____ _____    ______ ____
ROOT
ATOM      1  C   LIG    1       -1.170  -0.428   0.138  0.00  0.00    +0.216 C 
ENDROOT
BRANCH   1   2
ATOM      2  C   LIG    1       -1.742   0.179   1.401  0.00  0.00    -0.001 A 
ATOM      3  C   LIG    1       -2.610  -0.498   2.229  0.00  0.00    +0.007 A 
ATOM      4  C   LIG    1       -3.121   0.078   3.379  0.00  0.00    +0.000 A 
ATOM      5  C   LIG    1       -2.775   1.363   3.737  0.00  0.00    +0.000 A 
ATOM      6  C   LIG    1       -1.910   2.048   2.917  0.00  0.00    +0.000 A 
ATOM      7  C   LIG    1       -1.406   1.463   1.774  0.00  0.00    +0.007 A 
ENDBRANCH   1   2
BRANCH   1   8
ATOM      8  C   LIG    1       -1.600   0.441  -0.991  0.00  0.00    -0.001 A 
ATOM      9  C   LIG    1       -2.940   0.725  -1.125  0.00  0.00    +0.007 A 
ATOM     10  C   LIG    1       -3.437   1.521  -2.132  0.00  0.00    +0.000 A 
ATOM     11  C   LIG    1       -2.577   2.064  -3.051  0.00  0.00    +0.000 A 
ATOM     12  C   LIG    1       -1.232   1.796  -2.942  0.00  0.00    +0.000 A 
ATOM     13  C   LIG    1       -0.739   0.983  -1.911  0.00  0.00    +0.007 A 
ENDBRANCH   1   8
BRANCH   1  14
ATOM     14  C   LIG    1        0.288  -0.504   0.269  0.00  0.00    +0.349 C 
ATOM     15  O   LIG    1        0.879  -1.606   0.324  0.00  0.00    -0.247 OA
BRANCH  14  16
ATOM     16  O   LIG    1        1.113   0.614   0.343  0.00  0.00    -0.461 OA
BRANCH  16  17
ATOM     17  C   LIG    1        2.500   0.585   0.468  0.00  0.00    +0.247 C 
BRANCH  17  18
ATOM     18  C   LIG    1        3.152  -0.111  -0.677  0.00  0.00    +0.125 C 
BRANCH  18  19
ATOM     19  N   LIG    1        4.587  -0.161  -0.581  0.00  0.00    -0.305 NA
ATOM     20  C   LIG    1        5.005  -1.012   0.494  0.00  0.00    +0.104 C 
ATOM     21  C   LIG    1        5.188   1.142  -0.399  0.00  0.00    +0.104 C 
ENDBRANCH  18  19
ENDBRANCH  17  18
ENDBRANCH  16  17
ENDBRANCH  14  16
ENDBRANCH   1  14
BRANCH   1  22
ATOM     22  O   LIG    1       -1.735  -1.664   0.035  0.00  0.00    -0.354 OA
BRANCH  22  23
ATOM     23  C   LIG    1       -1.438  -2.449  -1.026  0.00  0.00    +0.159 C 
ATOM     24  C   LIG    1       -2.238  -3.753  -0.839  0.00  0.00    +0.034 C 
ENDBRANCH  22  23
ENDBRANCH   1  22
TORSDOF 9
