REMARK  Name = molecules/RHXHGRAEPCAFML-UHFFFAOYSA-N.pdb
REMARK                            x       y       z     vdW  Elec       q    Type
REMARK                         _______ _______ _______ _____ _____    ______ ____
ROOT
ATOM      1  C   LIG    1       -0.360   0.363   1.476  0.00  0.00    +0.126 A 
ATOM      2  C   LIG    1       -1.682   0.301   1.091  0.00  0.00    +0.038 A 
ATOM      3  C   LIG    1       -2.881   0.577   1.709  0.00  0.00    +0.044 A 
ATOM      4  C   LIG    1       -3.934   0.331   0.828  0.00  0.00    +0.107 A 
ATOM      5  N   LIG    1       -3.358  -0.094  -0.320  0.00  0.00    -0.318 N 
ATOM      6  C   LIG    1       -1.989  -0.111  -0.156  0.00  0.00    +0.147 A 
ATOM      7  N   LIG    1       -1.007  -0.457  -1.013  0.00  0.00    -0.196 NA
ATOM      8  C   LIG    1        0.279  -0.404  -0.660  0.00  0.00    +0.222 A 
ATOM      9  N   LIG    1        0.595   0.005   0.579  0.00  0.00    -0.222 NA
ENDROOT
BRANCH   4  10
ATOM     10  C   LIG    1       -5.322   0.500   1.116  0.00  0.00    +0.263 C 
ATOM     11  N   LIG    1       -5.911   0.954   2.313  0.00  0.00    -0.302 N 
ATOM     12  C   LIG    1       -5.266   1.365   3.528  0.00  0.00    +0.132 C 
ATOM     13  C   LIG    1       -7.400   1.047   2.390  0.00  0.00    +0.132 C 
ATOM     14  O   LIG    1       -6.171   0.215   0.200  0.00  0.00    -0.268 OA
ENDBRANCH   4  10
BRANCH   5  15
ATOM     15  C   LIG    1       -3.969  -0.477  -1.539  0.00  0.00    +0.089 C 
ATOM     16  C   LIG    1       -4.819  -1.721  -1.507  0.00  0.00    +0.025 C 
ATOM     17  C   LIG    1       -5.950  -1.507  -2.462  0.00  0.00    +0.002 C 
ATOM     18  C   LIG    1       -5.887  -0.087  -2.948  0.00  0.00    +0.002 C 
ATOM     19  C   LIG    1       -4.704   0.584  -2.300  0.00  0.00    +0.025 C 
ENDBRANCH   5  15
BRANCH   8  20
ATOM     20  N   LIG    1        1.307  -0.776  -1.591  0.00  0.00    -0.268 N 
ATOM     21  H   LIG    1        1.042  -1.085  -2.526  0.00  0.00    +0.156 HD
BRANCH  20  22
ATOM     22  C   LIG    1        2.666  -0.693  -1.155  0.00  0.00    +0.125 A 
ATOM     23  N   LIG    1        2.977  -0.281   0.085  0.00  0.00    -0.238 NA
ATOM     24  C   LIG    1        4.267  -0.200   0.498  0.00  0.00    +0.136 A 
ATOM     25  C   LIG    1        5.327  -0.528  -0.307  0.00  0.00    +0.048 A 
ATOM     26  C   LIG    1        5.011  -0.955  -1.587  0.00  0.00    +0.028 A 
ATOM     27  C   LIG    1        3.700  -1.032  -1.996  0.00  0.00    +0.045 A 
BRANCH  25  28
ATOM     28  N   LIG    1        6.669  -0.452   0.117  0.00  0.00    -0.326 N 
ATOM     29  C   LIG    1        7.025  -0.189   1.490  0.00  0.00    +0.120 C 
ATOM     30  C   LIG    1        7.605   1.212   1.515  0.00  0.00    +0.100 C 
ATOM     31  N   LIG    1        8.479   1.431   0.370  0.00  0.00    -0.313 NA
ATOM     32  C   LIG    1        8.928   0.171  -0.198  0.00  0.00    +0.100 C 
ATOM     33  H   LIG    1        8.026   2.000  -0.357  0.00  0.00    +0.122 HD
ATOM     34  C   LIG    1        7.782  -0.623  -0.796  0.00  0.00    +0.120 C 
ENDBRANCH  25  28
ENDBRANCH  20  22
ENDBRANCH   8  20
TORSDOF 5
