REMARK  Name = molecules/RIKMMFOAQPJVMX-UHFFFAOYSA-N.pdb
REMARK                            x       y       z     vdW  Elec       q    Type
REMARK                         _______ _______ _______ _____ _____    ______ ____
ROOT
ATOM      1  C   LIG    1       -1.700  -0.166   0.021  0.00  0.00    +0.047 C 
ATOM      2  C   LIG    1       -0.238   0.065   0.026  0.00  0.00    -0.013 A 
ATOM      3  C   LIG    1        0.417   1.246   0.258  0.00  0.00    +0.137 A 
ATOM      4  N   LIG    1        1.739   0.993   0.164  0.00  0.00    -0.182 NA
ATOM      5  N   LIG    1        1.932  -0.274  -0.113  0.00  0.00    -0.284 N 
ATOM      6  H   LIG    1        2.840  -0.735  -0.240  0.00  0.00    +0.188 HD
ATOM      7  C   LIG    1        0.741  -0.874  -0.205  0.00  0.00    +0.108 A 
ENDROOT
TORSDOF 0
