REMARK  Name = molecules/RIQIJXOWVAHQES-SBRAVCTHSA-N.pdb
REMARK                            x       y       z     vdW  Elec       q    Type
REMARK                         _______ _______ _______ _____ _____    ______ ____
ROOT
ATOM      1  C   LIG    1        1.103  -3.304  -0.894  0.00  0.00    +0.048 C 
ATOM      2  C   LIG    1        0.538  -1.941  -0.805  0.00  0.00    -0.002 A 
ATOM      3  C   LIG    1        1.360  -0.853  -0.670  0.00  0.00    +0.128 A 
ATOM      4  C   LIG    1        0.829   0.417  -0.588  0.00  0.00    +0.001 A 
ATOM      5  C   LIG    1        1.777   1.520  -0.433  0.00  0.00    +0.043 C 
ATOM      6  C   LIG    1        2.835   1.128   0.573  0.00  0.00    +0.052 C 
ATOM      7  C   LIG    1        3.556  -0.159   0.196  0.00  0.00    +0.108 C 
ATOM      8  C   LIG    1        3.910  -0.875   1.459  0.00  0.00    +0.055 C 
ATOM      9  C   LIG    1       -0.552   0.658  -0.638  0.00  0.00    -0.001 A 
ATOM     10  C   LIG    1       -1.081   2.050  -0.550  0.00  0.00    +0.048 C 
ATOM     11  C   LIG    1       -1.351  -0.440  -0.772  0.00  0.00    +0.138 A 
ATOM     12  O   LIG    1        2.751  -0.974  -0.611  0.00  0.00    -0.485 OA
ATOM     13  C   LIG    1       -0.821  -1.730  -0.856  0.00  0.00    -0.001 A 
ATOM     14  C   LIG    1       -1.727  -2.891  -0.997  0.00  0.00    +0.048 C 
ENDROOT
BRANCH  11  15
ATOM     15  O   LIG    1       -2.727  -0.311  -0.831  0.00  0.00    -0.422 OA
BRANCH  15  16
ATOM     16  C   LIG    1       -3.451  -0.471  -1.980  0.00  0.00    +0.337 C 
ATOM     17  O   LIG    1       -2.794  -0.738  -3.026  0.00  0.00    -0.245 OA
BRANCH  16  18
ATOM     18  C   LIG    1       -4.889  -0.360  -2.052  0.00  0.00    +0.095 C 
ATOM     19  C   LIG    1       -5.676  -0.062  -1.008  0.00  0.00    -0.044 C 
ATOM     20  C   LIG    1       -5.018   0.165   0.278  0.00  0.00    +0.044 C 
BRANCH  19  21
ATOM     21  C   LIG    1       -7.114   0.017  -1.210  0.00  0.00    +0.003 C 
ATOM     22  C   LIG    1       -7.938   0.316  -0.235  0.00  0.00    +0.001 C 
BRANCH  22  23
ATOM     23  C   LIG    1       -9.385   0.367  -0.527  0.00  0.00    +0.003 C 
ATOM     24  C   LIG    1      -10.254   0.684   0.438  0.00  0.00    -0.050 C 
ATOM     25  C   LIG    1       -9.666   0.983   1.753  0.00  0.00    +0.044 C 
BRANCH  24  26
ATOM     26  C   LIG    1      -11.683   0.730   0.159  0.00  0.00    +0.003 C 
ATOM     27  C   LIG    1      -12.616   1.039   1.027  0.00  0.00    +0.004 C 
BRANCH  27  28
ATOM     28  C   LIG    1      -14.053   1.100   0.805  0.00  0.00    -0.043 C 
ATOM     29  C   LIG    1      -14.812   1.443   1.845  0.00  0.00    -0.069 C 
ATOM     30  C   LIG    1      -14.180   1.744   3.172  0.00  0.00    +0.039 C 
ATOM     31  C   LIG    1      -16.262   1.547   1.758  0.00  0.00    +0.031 C 
ATOM     32  C   LIG    1      -16.766   0.601   0.691  0.00  0.00    +0.005 C 
ATOM     33  C   LIG    1      -16.102   0.956  -0.618  0.00  0.00    +0.011 C 
ATOM     34  C   LIG    1      -14.586   0.777  -0.521  0.00  0.00    -0.010 C 
ATOM     35  C   LIG    1      -14.241  -0.674  -0.832  0.00  0.00    +0.016 C 
ATOM     36  C   LIG    1      -14.015   1.647  -1.614  0.00  0.00    +0.016 C 
ENDBRANCH  27  28
ENDBRANCH  24  26
ENDBRANCH  22  23
ENDBRANCH  19  21
ENDBRANCH  16  18
ENDBRANCH  15  16
ENDBRANCH  11  15
BRANCH   7  37
ATOM     37  C   LIG    1        4.795   0.263  -0.590  0.00  0.00    +0.048 C 
BRANCH  37  38
ATOM     38  C   LIG    1        5.560  -0.937  -1.053  0.00  0.00    +0.004 C 
BRANCH  38  39
ATOM     39  C   LIG    1        6.756  -0.606  -1.852  0.00  0.00    +0.003 C 
BRANCH  39  40
ATOM     40  C   LIG    1        7.836   0.197  -1.196  0.00  0.00    -0.014 C 
ATOM     41  C   LIG    1        7.532   1.639  -0.991  0.00  0.00    +0.007 C 
BRANCH  40  42
ATOM     42  C   LIG    1        8.364  -0.512   0.037  0.00  0.00    +0.003 C 
BRANCH  42  43
ATOM     43  C   LIG    1        9.462   0.207   0.745  0.00  0.00    +0.001 C 
BRANCH  43  44
ATOM     44  C   LIG    1       10.683   0.423  -0.127  0.00  0.00    +0.003 C 
BRANCH  44  45
ATOM     45  C   LIG    1       11.236  -0.896  -0.631  0.00  0.00    -0.014 C 
ATOM     46  C   LIG    1       12.213  -0.668  -1.736  0.00  0.00    +0.007 C 
BRANCH  45  47
ATOM     47  C   LIG    1       11.658  -1.842   0.430  0.00  0.00    +0.003 C 
BRANCH  47  48
ATOM     48  C   LIG    1       12.713  -1.406   1.370  0.00  0.00    +0.001 C 
BRANCH  48  49
ATOM     49  C   LIG    1       14.039  -1.059   0.739  0.00  0.00    +0.003 C 
BRANCH  49  50
ATOM     50  C   LIG    1       15.057  -0.646   1.788  0.00  0.00    -0.017 C 
ATOM     51  C   LIG    1       14.615   0.537   2.593  0.00  0.00    +0.007 C 
ATOM     52  C   LIG    1       16.346  -0.318   1.082  0.00  0.00    +0.007 C 
ENDBRANCH  49  50
ENDBRANCH  48  49
ENDBRANCH  47  48
ENDBRANCH  45  47
ENDBRANCH  44  45
ENDBRANCH  43  44
ENDBRANCH  42  43
ENDBRANCH  40  42
ENDBRANCH  39  40
ENDBRANCH  38  39
ENDBRANCH  37  38
ENDBRANCH   7  37
TORSDOF 19
