REMARK  Name = molecules/RITAVMQDGBJQJZ-FMIVXFBMSA-N.pdb
REMARK                            x       y       z     vdW  Elec       q    Type
REMARK                         _______ _______ _______ _____ _____    ______ ____
ROOT
ATOM      1  C   LIG    1        2.291   1.073  -0.514  0.00  0.00    +0.093 A 
ATOM      2  C   LIG    1        1.169   0.289  -0.491  0.00  0.00    +0.027 A 
ATOM      3  C   LIG    1        0.968  -1.021  -0.156  0.00  0.00    +0.013 A 
ATOM      4  C   LIG    1       -0.321  -1.542  -0.245  0.00  0.00    +0.016 A 
ATOM      5  C   LIG    1       -1.404  -0.812  -0.653  0.00  0.00    +0.015 A 
ATOM      6  C   LIG    1       -1.204   0.487  -0.987  0.00  0.00    +0.042 A 
ATOM      7  C   LIG    1        0.079   1.042  -0.909  0.00  0.00    +0.067 A 
ATOM      8  N   LIG    1        0.552   2.262  -1.178  0.00  0.00    -0.276 N 
ATOM      9  H   LIG    1       -0.058   3.045  -1.516  0.00  0.00    +0.189 HD
ATOM     10  N   LIG    1        1.836   2.305  -0.957  0.00  0.00    -0.173 NA
ENDROOT
BRANCH   1  11
ATOM     11  C   LIG    1        3.680   0.851  -0.157  0.00  0.00    +0.032 C 
ATOM     12  C   LIG    1        4.254  -0.170   0.382  0.00  0.00    +0.030 C 
BRANCH  12  13
ATOM     13  C   LIG    1        5.697  -0.272   0.697  0.00  0.00    +0.064 A 
ATOM     14  N   LIG    1        6.108  -1.440   1.272  0.00  0.00    -0.256 NA
ATOM     15  C   LIG    1        7.396  -1.625   1.595  0.00  0.00    +0.111 A 
ATOM     16  C   LIG    1        8.351  -0.664   1.368  0.00  0.00    +0.020 A 
ATOM     17  C   LIG    1        7.927   0.506   0.791  0.00  0.00    +0.004 A 
ATOM     18  C   LIG    1        6.601   0.715   0.450  0.00  0.00    +0.028 A 
ENDBRANCH  12  13
ENDBRANCH   1  11
BRANCH   5  19
ATOM     19  S   LIG    1       -2.982  -1.631  -0.703  0.00  0.00    -0.089 S 
BRANCH  19  20
ATOM     20  C   LIG    1       -4.295  -0.581  -1.220  0.00  0.00    +0.025 A 
ATOM     21  C   LIG    1       -5.001   0.187  -0.334  0.00  0.00    +0.050 A 
ATOM     22  C   LIG    1       -6.015   1.039  -0.832  0.00  0.00    +0.014 A 
ATOM     23  C   LIG    1       -6.282   1.090  -2.183  0.00  0.00    +0.001 A 
ATOM     24  C   LIG    1       -5.568   0.313  -3.073  0.00  0.00    +0.001 A 
ATOM     25  C   LIG    1       -4.590  -0.504  -2.561  0.00  0.00    +0.016 A 
BRANCH  21  26
ATOM     26  C   LIG    1       -4.849   0.186   1.101  0.00  0.00    +0.245 C 
ATOM     27  N   LIG    1       -4.330  -0.927   1.794  0.00  0.00    -0.314 N 
ATOM     28  C   LIG    1       -4.197  -0.843   3.276  0.00  0.00    +0.128 C 
ATOM     29  H   LIG    1       -4.050  -1.804   1.371  0.00  0.00    +0.149 HD
ATOM     30  O   LIG    1       -5.205   1.233   1.739  0.00  0.00    -0.270 OA
ENDBRANCH  21  26
ENDBRANCH  19  20
ENDBRANCH   5  19
TORSDOF 5
