REMARK  Name = molecules/RJFAYQIBOAGBLC-BYPYZUCNSA-N.pdb
REMARK                            x       y       z     vdW  Elec       q    Type
REMARK                         _______ _______ _______ _____ _____    ______ ____
ROOT
ATOM      1  CA  LIG    1       -1.629  -0.527  -0.608  0.00  0.00    +0.000 C 
ENDROOT
BRANCH   1   2
ATOM      2  N   LIG    1       -1.047  -1.789  -0.932  0.00  0.00    +0.000 NA
ATOM      3  H1  LIG    1       -0.833  -2.307  -0.047  0.00  0.00    +0.000 HD
ATOM      4  H2  LIG    1       -0.233  -1.764  -1.546  0.00  0.00    +0.000 HD
ENDBRANCH   1   2
BRANCH   1   5
ATOM      5  C   LIG    1       -1.565   0.451  -1.714  0.00  0.00    +0.000 C 
ATOM      6  O   LIG    1       -1.042   0.146  -2.795  0.00  0.00    +0.000 OA
BRANCH   5   7
ATOM      7  OXT LIG    1       -2.104   1.713  -1.504  0.00  0.00    +0.000 OA
ATOM      8  HXT LIG    1       -1.737   2.324  -0.786  0.00  0.00    +0.000 HD
ENDBRANCH   5   7
ENDBRANCH   1   5
BRANCH   1   9
ATOM      9  C   LIG    1       -1.096   0.090   0.657  0.00  0.00    +0.000 C 
BRANCH   9  10
ATOM     10  C   LIG    1        0.324   0.542   0.560  0.00  0.00    +0.000 C 
BRANCH  10  11
ATOM     11 SE   LIG    1        1.571  -0.855   0.148  0.00  0.00    +0.000 Se
ATOM     12  C   LIG    1        3.266  -0.090  -0.367  0.00  0.00    +0.000 C 
ENDBRANCH  10  11
ENDBRANCH   9  10
ENDBRANCH   1   9
TORSDOF 6
