REMARK  Name = molecules/RJMIEHBSYVWVIN-LLVKDONJSA-N.pdb
REMARK                            x       y       z     vdW  Elec       q    Type
REMARK                         _______ _______ _______ _____ _____    ______ ____
ROOT
ATOM      1  C   LIG    1       -0.047   0.019  -0.066  0.00  0.00    +0.037 A 
ATOM      2  C   LIG    1       -0.804   1.067   0.401  0.00  0.00    +0.024 A 
ATOM      3  C   LIG    1       -2.195   1.060   0.323  0.00  0.00    +0.006 A 
ATOM      4  C   LIG    1       -2.885  -0.003  -0.228  0.00  0.00    -0.034 A 
ATOM      5  C   LIG    1       -2.122  -1.050  -0.694  0.00  0.00    +0.006 A 
ATOM      6  C   LIG    1       -0.729  -1.046  -0.617  0.00  0.00    +0.024 A 
ENDROOT
BRANCH   1  16
ATOM      7  O   LIG    1        1.882  -1.939   1.215  0.00  0.00    -0.270 OA
ATOM      8  C   LIG    1        2.258  -0.929   0.565  0.00  0.00    +0.251 C 
ATOM      9  C   LIG    1        3.624  -0.527   0.294  0.00  0.00    +0.042 A 
ATOM     10  C   LIG    1        4.852  -1.057   0.597  0.00  0.00    +0.013 A 
ATOM     11  C   LIG    1        6.030  -0.445   0.174  0.00  0.00    +0.001 A 
ATOM     12  C   LIG    1        5.995   0.728  -0.571  0.00  0.00    +0.000 A 
ATOM     13  C   LIG    1        4.774   1.257  -0.873  0.00  0.00    +0.006 A 
ATOM     14  C   LIG    1        3.620   0.636  -0.445  0.00  0.00    -0.018 A 
ATOM     15  C   LIG    1        2.228   1.026  -0.638  0.00  0.00    +0.149 C 
ATOM     16  N   LIG    1        1.393   0.001  -0.020  0.00  0.00    -0.263 N 
ENDBRANCH   1  16
BRANCH   4  17
ATOM     17  C   LIG    1       -4.373   0.012  -0.326  0.00  0.00    +0.124 C 
ATOM     18  C   LIG    1       -4.888  -0.930  -1.346  0.00  0.00    +0.024 C 
BRANCH  17  19
ATOM     19  C   LIG    1       -4.968  -0.242   1.018  0.00  0.00    +0.312 C 
ATOM     20  O   LIG    1       -5.711  -1.217   1.270  0.00  0.00    -0.250 OA
BRANCH  19  21
ATOM     21  O   LIG    1       -4.693   0.644   2.061  0.00  0.00    -0.480 OA
ATOM     22  H   LIG    1       -4.929   1.635   1.888  0.00  0.00    +0.295 HD
ENDBRANCH  19  21
ENDBRANCH  17  19
ENDBRANCH   4  17
TORSDOF 4
