REMARK  Name = molecules/RJMUSRYZPJIFPJ-UHFFFAOYSA-N.pdb
REMARK                            x       y       z     vdW  Elec       q    Type
REMARK                         _______ _______ _______ _____ _____    ______ ____
ROOT
ATOM      1  C   LIG    1       -0.946   0.052  -0.466  0.00  0.00    +0.252 C 
ATOM      2  N   LIG    1        0.154  -0.035   0.372  0.00  0.00    -0.280 N 
ATOM      3  H   LIG    1       -0.038  -0.127   1.415  0.00  0.00    +0.155 HD
ATOM      4  O   LIG    1       -0.705   0.162  -1.723  0.00  0.00    -0.270 OA
ENDROOT
BRANCH   2   5
ATOM      5  C   LIG    1        1.527  -0.018   0.029  0.00  0.00    +0.052 A 
ATOM      6  C   LIG    1        2.476  -0.121   1.060  0.00  0.00    +0.064 A 
ATOM      7 CL   LIG    1        1.956  -0.267   2.748  0.00  0.00    -0.082 Cl
ATOM      8  C   LIG    1        3.816  -0.111   0.798  0.00  0.00    +0.054 A 
ATOM      9  C   LIG    1        4.307  -0.001  -0.483  0.00  0.00    +0.128 A 
ATOM     10  C   LIG    1        3.387   0.100  -1.496  0.00  0.00    +0.034 A 
ATOM     11  C   LIG    1        2.010   0.091  -1.243  0.00  0.00    +0.027 A 
BRANCH   9  12
ATOM     12  N   LIG    1        5.698   0.010  -0.764  0.00  0.00    +0.056 N 
ATOM     13  O   LIG    1        6.654  -0.087   0.206  0.00  0.00    -0.126 OA
ATOM     14  O   LIG    1        6.081   0.113  -1.944  0.00  0.00    -0.126 OA
ENDBRANCH   9  12
ENDBRANCH   2   5
BRANCH   1  15
ATOM     15  C   LIG    1       -2.352   0.036  -0.131  0.00  0.00    +0.080 A 
ATOM     16  C   LIG    1       -2.804  -0.075   1.152  0.00  0.00    +0.129 A 
ATOM     17  C   LIG    1       -4.197  -0.083   1.394  0.00  0.00    +0.047 A 
ATOM     18  C   LIG    1       -5.085   0.021   0.352  0.00  0.00    +0.023 A 
ATOM     19  C   LIG    1       -4.650   0.133  -0.947  0.00  0.00    +0.042 A 
ATOM     20 CL   LIG    1       -5.806   0.264  -2.274  0.00  0.00    -0.084 Cl
ATOM     21  C   LIG    1       -3.299   0.139  -1.169  0.00  0.00    +0.036 A 
BRANCH  16  22
ATOM     22  O   LIG    1       -1.950  -0.179   2.211  0.00  0.00    -0.506 OA
ATOM     23  H   LIG    1       -2.314  -0.260   3.148  0.00  0.00    +0.292 HD
ENDBRANCH  16  22
ENDBRANCH   1  15
TORSDOF 4
