REMARK  Name = molecules/RKEWSXXUOLRFBX-UHFFFAOYSA-N.pdb
REMARK                            x       y       z     vdW  Elec       q    Type
REMARK                         _______ _______ _______ _____ _____    ______ ____
ROOT
ATOM      1  N   LIG    1       -2.128   0.299  -0.423  0.00  0.00    -0.278 N 
ATOM      2  C   LIG    1       -1.178   0.812   0.498  0.00  0.00    +0.303 C 
ATOM      3  O   LIG    1       -0.911   0.155   1.536  0.00  0.00    -0.253 OA
ATOM      4  N   LIG    1       -0.503   2.044   0.309  0.00  0.00    -0.295 N 
ATOM      5  H   LIG    1       -0.667   2.660  -0.527  0.00  0.00    +0.151 HD
ENDROOT
BRANCH   1   6
ATOM      6  C   LIG    1       -2.785  -0.957  -0.175  0.00  0.00    +0.080 C 
ATOM      7  C   LIG    1       -3.628  -0.999   1.057  0.00  0.00    +0.038 C 
ATOM      8  C   LIG    1       -3.834  -2.392   1.587  0.00  0.00    +0.086 C 
ATOM      9  N   LIG    1       -3.704  -3.413   0.606  0.00  0.00    -0.305 NA
ATOM     10  C   LIG    1       -4.881  -3.716  -0.140  0.00  0.00    +0.104 C 
ATOM     11  C   LIG    1       -2.494  -3.416  -0.147  0.00  0.00    +0.086 C 
ATOM     12  C   LIG    1       -1.781  -2.078  -0.097  0.00  0.00    +0.038 C 
ENDBRANCH   1   6
BRANCH   1  13
ATOM     13  C   LIG    1       -2.393   1.093  -1.608  0.00  0.00    +0.144 C 
BRANCH  13  16
ATOM     14  C   LIG    1       -4.976   3.306   0.004  0.00  0.00    +0.038 A 
ATOM     15  C   LIG    1       -3.960   2.366  -0.178  0.00  0.00    +0.008 A 
ATOM     16  C   LIG    1       -3.457   2.077  -1.426  0.00  0.00    -0.030 A 
ATOM     17  C   LIG    1       -4.005   2.764  -2.491  0.00  0.00    +0.008 A 
ATOM     18  C   LIG    1       -5.012   3.697  -2.312  0.00  0.00    +0.038 A 
ATOM     19  C   LIG    1       -5.508   3.979  -1.066  0.00  0.00    +0.123 A 
ATOM     20  F   LIG    1       -6.502   4.896  -0.866  0.00  0.00    -0.205 F 
ENDBRANCH  13  16
ENDBRANCH   1  13
BRANCH   4  21
ATOM     21  C   LIG    1        0.462   2.538   1.262  0.00  0.00    +0.141 C 
BRANCH  21  22
ATOM     22  C   LIG    1        1.708   1.769   1.060  0.00  0.00    -0.030 A 
ATOM     23  C   LIG    1        2.074   0.780   1.916  0.00  0.00    +0.009 A 
ATOM     24  C   LIG    1        3.268   0.097   1.659  0.00  0.00    +0.046 A 
ATOM     25  C   LIG    1        4.075   0.389   0.584  0.00  0.00    +0.121 A 
ATOM     26  C   LIG    1        3.687   1.394  -0.270  0.00  0.00    +0.046 A 
ATOM     27  C   LIG    1        2.515   2.078  -0.034  0.00  0.00    +0.009 A 
BRANCH  25  28
ATOM     28  O   LIG    1        5.251  -0.334   0.391  0.00  0.00    -0.492 OA
BRANCH  28  29
ATOM     29  C   LIG    1        6.112  -0.077  -0.695  0.00  0.00    +0.232 C 
BRANCH  29  30
ATOM     30  C   LIG    1        7.278  -1.036  -0.601  0.00  0.00    +0.020 C 
ATOM     31  C   LIG    1        8.046  -0.876   0.677  0.00  0.00    +0.010 C 
ATOM     32  C   LIG    1        6.700  -2.450  -0.682  0.00  0.00    +0.010 C 
ENDBRANCH  29  30
ENDBRANCH  28  29
ENDBRANCH  25  28
ENDBRANCH  21  22
ENDBRANCH   4  21
TORSDOF 8
