REMARK  Name = molecules/RKLNONIVDFXQRX-UHFFFAOYSA-N.pdb
REMARK                            x       y       z     vdW  Elec       q    Type
REMARK                         _______ _______ _______ _____ _____    ______ ____
ROOT
ATOM      1  C   LIG    1        3.343  -0.839   0.305  0.00  0.00    +0.093 C 
ATOM      2  C   LIG    1        2.228  -0.077   0.994  0.00  0.00    +0.055 C 
ATOM      3  C   LIG    1        1.154   0.371   0.037  0.00  0.00    +0.087 C 
ATOM      4  N   LIG    1        0.528  -0.681  -0.716  0.00  0.00    -0.302 NA
ATOM      5  C   LIG    1        1.422  -1.800  -0.938  0.00  0.00    +0.087 C 
ATOM      6  C   LIG    1        2.888  -1.397  -0.991  0.00  0.00    +0.055 C 
ENDROOT
BRANCH   1   7
ATOM      7  C   LIG    1        4.529  -0.009   0.186  0.00  0.00    -0.016 A 
ATOM      8  C   LIG    1        5.632  -0.294   0.991  0.00  0.00    +0.007 A 
ATOM      9  C   LIG    1        6.755   0.481   0.963  0.00  0.00    +0.015 A 
ATOM     10  C   LIG    1        6.819   1.573   0.126  0.00  0.00    +0.018 A 
ATOM     11 BR   LIG    1        8.399   2.654   0.124  0.00  0.00    -0.050 Br
ATOM     12  C   LIG    1        5.733   1.851  -0.667  0.00  0.00    +0.015 A 
ATOM     13  C   LIG    1        4.602   1.074  -0.641  0.00  0.00    +0.007 A 
ENDBRANCH   1   7
BRANCH   1  14
ATOM     14  O   LIG    1        3.608  -1.942   1.167  0.00  0.00    -0.384 OA
ATOM     15  H   LIG    1        4.176  -2.622   0.724  0.00  0.00    +0.211 HD
ENDBRANCH   1  14
BRANCH   4  16
ATOM     16  C   LIG    1       -0.715  -1.126  -0.111  0.00  0.00    +0.085 C 
BRANCH  16  17
ATOM     17  C   LIG    1       -1.704  -0.007  -0.137  0.00  0.00    +0.023 C 
BRANCH  17  18
ATOM     18  C   LIG    1       -3.019  -0.490   0.506  0.00  0.00    +0.081 C 
BRANCH  18  19
ATOM     19  C   LIG    1       -3.907   0.691   0.454  0.00  0.00    +0.163 C 
ATOM     20  O   LIG    1       -3.334   1.810   0.678  0.00  0.00    -0.292 OA
BRANCH  19  21
ATOM     21  C   LIG    1       -5.312   0.666   0.168  0.00  0.00    +0.018 A 
ATOM     22  C   LIG    1       -6.021   1.858   0.150  0.00  0.00    +0.014 A 
ATOM     23  C   LIG    1       -7.338   1.909  -0.162  0.00  0.00    +0.039 A 
ATOM     24  C   LIG    1       -7.999   0.736  -0.472  0.00  0.00    +0.123 A 
ATOM     25  C   LIG    1       -7.342  -0.450  -0.464  0.00  0.00    +0.039 A 
ATOM     26  F   LIG    1       -9.303   0.810  -0.797  0.00  0.00    -0.205 F 
ATOM     27  C   LIG    1       -5.985  -0.480  -0.140  0.00  0.00    +0.014 A 
ENDBRANCH  19  21
ENDBRANCH  18  19
ENDBRANCH  17  18
ENDBRANCH  16  17
ENDBRANCH   4  16
TORSDOF 7
