REMARK  Name = molecules/RKUNBYITZUJHSG-FXUDXRNXSA-N.pdb
REMARK                            x       y       z     vdW  Elec       q    Type
REMARK                         _______ _______ _______ _____ _____    ______ ____
ROOT
ATOM      1  C   LIG    1        1.261  -0.117   0.327  0.00  0.00    +0.317 C 
ATOM      2  O   LIG    1        1.262  -1.219  -0.241  0.00  0.00    -0.250 OA
ENDROOT
BRANCH   1   3
ATOM      3  O   LIG    1        0.061   0.551   0.453  0.00  0.00    -0.461 OA
BRANCH   3   4
ATOM      4  C   LIG    1       -1.174   0.054  -0.027  0.00  0.00    +0.179 C 
ATOM      5  C   LIG    1       -2.074  -0.228   1.151  0.00  0.00    +0.063 C 
ATOM      6  C   LIG    1       -3.503  -0.431   0.756  0.00  0.00    +0.060 C 
ATOM      7  C   LIG    1       -4.298   0.814   0.972  0.00  0.00    +0.020 C 
ATOM      8  C   LIG    1       -3.976   1.653  -0.242  0.00  0.00    +0.020 C 
ATOM      9  C   LIG    1       -3.278   0.687  -1.179  0.00  0.00    +0.060 C 
ATOM     10  N   LIG    1       -3.561  -0.636  -0.665  0.00  0.00    -0.299 NA
ATOM     11  C   LIG    1       -4.866  -1.037  -1.107  0.00  0.00    +0.105 C 
ATOM     12  C   LIG    1       -1.798   0.921  -1.067  0.00  0.00    +0.063 C 
ENDBRANCH   3   4
ENDBRANCH   1   3
BRANCH   1  13
ATOM     13  C   LIG    1        2.548   0.424   0.840  0.00  0.00    +0.153 C 
BRANCH  13  14
ATOM     14  C   LIG    1        3.654  -0.503   0.562  0.00  0.00    -0.032 A 
ATOM     15  C   LIG    1        4.411  -1.041   1.590  0.00  0.00    +0.004 A 
ATOM     16  C   LIG    1        5.456  -1.913   1.376  0.00  0.00    +0.000 A 
ATOM     17  C   LIG    1        5.762  -2.268   0.069  0.00  0.00    +0.000 A 
ATOM     18  C   LIG    1        5.029  -1.752  -0.993  0.00  0.00    +0.000 A 
ATOM     19  C   LIG    1        3.985  -0.875  -0.714  0.00  0.00    +0.004 A 
ENDBRANCH  13  14
BRANCH  13  20
ATOM     20  C   LIG    1        2.814   1.817   0.271  0.00  0.00    +0.175 C 
BRANCH  20  21
ATOM     21  O   LIG    1        4.020   2.251   0.789  0.00  0.00    -0.394 OA
ATOM     22  H   LIG    1        4.003   3.190   1.066  0.00  0.00    +0.209 HD
ENDBRANCH  20  21
ENDBRANCH  13  20
ENDBRANCH   1  13
TORSDOF 6
