REMARK  Name = molecules/RKWGIWYCVPQPMF-UHFFFAOYSA-N.pdb
REMARK                            x       y       z     vdW  Elec       q    Type
REMARK                         _______ _______ _______ _____ _____    ______ ____
ROOT
ATOM      1  S   LIG    1        1.093  -0.921  -0.806  0.00  0.00    +0.076 S 
ATOM      2  O   LIG    1        0.799  -2.263  -0.146  0.00  0.00    -0.150 OA
ATOM      3  O   LIG    1        1.054  -1.070  -2.300  0.00  0.00    -0.150 OA
ENDROOT
BRANCH   1   4
ATOM      4  C   LIG    1        2.696  -0.472  -0.310  0.00  0.00    +0.109 A 
ATOM      5  C   LIG    1        3.200  -0.886   0.896  0.00  0.00    +0.030 A 
ATOM      6  C   LIG    1        4.476  -0.513   1.259  0.00  0.00    +0.022 A 
ATOM      7  C   LIG    1        5.242   0.265   0.428  0.00  0.00    +0.041 A 
ATOM      8 CL   LIG    1        6.869   0.767   0.840  0.00  0.00    -0.084 Cl
ATOM      9  C   LIG    1        4.728   0.675  -0.780  0.00  0.00    +0.022 A 
ATOM     10  C   LIG    1        3.459   0.306  -1.145  0.00  0.00    +0.030 A 
ENDBRANCH   1   4
BRANCH   1  11
ATOM     11  N   LIG    1       -0.049   0.253  -0.281  0.00  0.00    -0.169 N 
ATOM     12  H   LIG    1        0.287   1.048   0.305  0.00  0.00    +0.178 HD
ATOM     13  C   LIG    1       -1.401   0.100  -0.661  0.00  0.00    +0.319 C 
ATOM     14  N   LIG    1       -2.340   1.072  -0.225  0.00  0.00    -0.298 N 
ATOM     15  H   LIG    1       -1.994   1.861   0.359  0.00  0.00    +0.150 HD
ATOM     16  O   LIG    1       -1.732  -0.885  -1.368  0.00  0.00    -0.251 OA
BRANCH  14  17
ATOM     17  C   LIG    1       -3.750   0.998  -0.565  0.00  0.00    +0.105 C 
BRANCH  17  18
ATOM     18  C   LIG    1       -4.375  -0.283  -0.041  0.00  0.00    +0.015 C 
ATOM     19  C   LIG    1       -4.200  -0.257   1.469  0.00  0.00    +0.005 C 
ENDBRANCH  17  18
ENDBRANCH  14  17
ENDBRANCH   1  11
TORSDOF 4
