REMARK  Name = molecules/RKWPZPDLTYBKCL-RVZGXXANSA-N.pdb
REMARK                            x       y       z     vdW  Elec       q    Type
REMARK                         _______ _______ _______ _____ _____    ______ ____
ROOT
ATOM      1  C   LIG    1       -3.377  -1.446   0.416  0.00  0.00    +0.075 C 
ATOM      2  C   LIG    1       -4.165  -1.557   1.682  0.00  0.00    +0.036 C 
ATOM      3  C   LIG    1       -5.184  -0.446   1.668  0.00  0.00    +0.012 C 
ATOM      4  C   LIG    1       -5.087   0.244   0.313  0.00  0.00    +0.031 C 
ATOM      5  C   LIG    1       -2.067  -0.789   0.536  0.00  0.00    +0.025 C 
ATOM      6  C   LIG    1       -1.846   0.045   1.768  0.00  0.00    +0.011 C 
ATOM      7  C   LIG    1       -0.619   0.876   1.762  0.00  0.00    +0.031 C 
ATOM      8  C   LIG    1        0.256   0.788   0.582  0.00  0.00    -0.065 C 
ATOM      9  C   LIG    1        1.477   1.309   0.618  0.00  0.00    +0.004 C 
ATOM     10  C   LIG    1        2.429   1.289  -0.489  0.00  0.00    +0.144 C 
ATOM     11  C   LIG    1        1.804   1.101  -1.837  0.00  0.00    +0.037 C 
ATOM     12  C   LIG    1        0.316   0.977  -1.810  0.00  0.00    +0.014 C 
ATOM     13  C   LIG    1       -0.192   0.134  -0.661  0.00  0.00    -0.008 C 
ATOM     14  C   LIG    1        0.422  -1.250  -0.679  0.00  0.00    +0.016 C 
ATOM     15  C   LIG    1       -1.677   0.054  -0.656  0.00  0.00    +0.005 C 
ATOM     16  C   LIG    1       -2.270  -0.586  -1.868  0.00  0.00    +0.005 C 
ATOM     17  C   LIG    1       -3.780  -0.306  -1.780  0.00  0.00    +0.010 C 
ATOM     18  C   LIG    1       -4.385  -0.789  -0.505  0.00  0.00    +0.004 C 
ATOM     19  C   LIG    1       -5.394  -1.864  -0.865  0.00  0.00    +0.014 C 
ENDROOT
BRANCH   4  20
ATOM     20  C   LIG    1       -6.478   0.539  -0.083  0.00  0.00    -0.009 A 
ATOM     21  C   LIG    1       -7.405   0.848   0.920  0.00  0.00    +0.014 A 
ATOM     22  C   LIG    1       -8.695   1.125   0.542  0.00  0.00    +0.092 A 
ATOM     23  C   LIG    1       -9.091   1.103  -0.798  0.00  0.00    +0.337 A 
ATOM     24  O   LIG    1      -10.264   1.356  -1.127  0.00  0.00    -0.245 OA
ATOM     25  O   LIG    1       -8.196   0.810  -1.706  0.00  0.00    -0.430 OA
ATOM     26  C   LIG    1       -6.953   0.541  -1.375  0.00  0.00    +0.203 A 
ENDBRANCH   4  20
BRANCH   1  27
ATOM     27  O   LIG    1       -3.214  -2.757  -0.086  0.00  0.00    -0.388 OA
ATOM     28  H   LIG    1       -3.364  -3.435   0.610  0.00  0.00    +0.210 HD
ENDBRANCH   1  27
BRANCH  10  29
ATOM     29  O   LIG    1        3.393   0.328  -0.298  0.00  0.00    -0.341 OA
BRANCH  29  30
ATOM     30  C   LIG    1        4.675   0.858  -0.179  0.00  0.00    +0.282 C 
ATOM     31  C   LIG    1        5.221   0.417   1.162  0.00  0.00    +0.201 C 
ATOM     32  C   LIG    1        6.135  -0.763   0.916  0.00  0.00    +0.179 C 
ATOM     33  C   LIG    1        7.364  -0.212   0.185  0.00  0.00    +0.177 C 
ATOM     34  C   LIG    1        6.822   0.588  -0.989  0.00  0.00    +0.150 C 
ATOM     35  C   LIG    1        7.218   2.018  -0.830  0.00  0.00    +0.041 C 
ATOM     36  O   LIG    1        5.481   0.379  -1.211  0.00  0.00    -0.343 OA
BRANCH  31  37
ATOM     37  O   LIG    1        5.869   1.449   1.833  0.00  0.00    -0.384 OA
ATOM     38  H   LIG    1        6.595   1.038   2.376  0.00  0.00    +0.210 HD
ENDBRANCH  31  37
BRANCH  32  39
ATOM     39  O   LIG    1        6.493  -1.410   2.085  0.00  0.00    -0.386 OA
ATOM     40  H   LIG    1        6.743  -2.347   1.834  0.00  0.00    +0.210 HD
ENDBRANCH  32  39
BRANCH  33  41
ATOM     41  O   LIG    1        8.217  -1.215  -0.201  0.00  0.00    -0.375 OA
ATOM     42  C   LIG    1        9.433  -1.079   0.423  0.00  0.00    +0.194 C 
ENDBRANCH  33  41
ENDBRANCH  29  30
ENDBRANCH  10  29
TORSDOF 7
