REMARK  Name = molecules/RLLPVAHGXHCWKJ-IEBWSBKVSA-N.pdb
REMARK                            x       y       z     vdW  Elec       q    Type
REMARK                         _______ _______ _______ _____ _____    ______ ____
ROOT
ATOM      1  C   LIG    1       -0.304   1.244  -0.262  0.00  0.00    +0.267 C 
ENDROOT
BRANCH   1   2
ATOM      2  C   LIG    1        0.684   0.169  -0.446  0.00  0.00    -0.007 A 
ATOM      3  C   LIG    1        0.410  -1.156  -0.330  0.00  0.00    +0.007 A 
ATOM      4  C   LIG    1        1.355  -2.154  -0.510  0.00  0.00    +0.004 A 
ATOM      5  C   LIG    1        2.636  -1.777  -0.824  0.00  0.00    +0.046 A 
ATOM      6  C   LIG    1        2.968  -0.444  -0.954  0.00  0.00    +0.129 A 
ATOM      7  C   LIG    1        1.998   0.515  -0.766  0.00  0.00    +0.053 A 
BRANCH   6   8
ATOM      8  O   LIG    1        4.267  -0.085  -1.271  0.00  0.00    -0.456 OA
BRANCH   8   9
ATOM      9  C   LIG    1        5.202   0.144  -0.273  0.00  0.00    +0.128 A 
ATOM     10  C   LIG    1        6.012  -0.841   0.245  0.00  0.00    +0.046 A 
ATOM     11  C   LIG    1        6.946  -0.604   1.245  0.00  0.00    +0.004 A 
ATOM     12  C   LIG    1        7.066   0.696   1.744  0.00  0.00    +0.000 A 
ATOM     13  C   LIG    1        6.263   1.689   1.234  0.00  0.00    +0.004 A 
ATOM     14  C   LIG    1        5.341   1.435   0.242  0.00  0.00    +0.046 A 
ENDBRANCH   8   9
ENDBRANCH   6   8
ENDBRANCH   1   2
BRANCH   1  15
ATOM     15  O   LIG    1       -1.630   0.798  -0.190  0.00  0.00    -0.460 OA
BRANCH  15  16
ATOM     16  C   LIG    1       -2.297   0.107  -1.187  0.00  0.00    +0.312 C 
ATOM     17  O   LIG    1       -1.565  -0.092  -2.221  0.00  0.00    -0.250 OA
BRANCH  16  21
ATOM     18  C   LIG    1       -4.528   1.793  -0.127  0.00  0.00    +0.012 C 
ATOM     19  C   LIG    1       -4.826   0.443  -0.664  0.00  0.00    -0.014 C 
ATOM     20  C   LIG    1       -4.347  -0.823   0.066  0.00  0.00    +0.035 C 
ATOM     21  C   LIG    1       -3.675  -0.374  -1.145  0.00  0.00    +0.111 C 
ATOM     22  C   LIG    1       -6.185   0.280  -1.335  0.00  0.00    +0.012 C 
BRANCH  20  23
ATOM     23  C   LIG    1       -3.909  -0.598   1.445  0.00  0.00    +0.010 C 
ATOM     24  C   LIG    1       -3.628  -1.580   2.298  0.00  0.00    +0.103 C 
ATOM     25 CL   LIG    1       -3.113  -1.187   3.922  0.00  0.00    -0.071 Cl
ATOM     26 CL   LIG    1       -3.753  -3.268   1.862  0.00  0.00    -0.071 Cl
ENDBRANCH  20  23
ENDBRANCH  16  21
ENDBRANCH  15  16
ENDBRANCH   1  15
TORSDOF 7
