REMARK  Name = molecules/RLWRMIYXDPXIEX-ZCFIWIBFSA-N.pdb
REMARK                            x       y       z     vdW  Elec       q    Type
REMARK                         _______ _______ _______ _____ _____    ______ ____
ROOT
ATOM      1  C   LIG    1       -0.100  -1.006   0.658  0.00  0.00    +0.152 C 
ATOM      2  C   LIG    1       -0.372  -2.439   0.532  0.00  0.00    +0.037 C 
ENDROOT
BRANCH   1   3
ATOM      3  C   LIG    1       -1.301  -0.154   0.314  0.00  0.00    -0.022 A 
ATOM      4  C   LIG    1       -2.337  -0.039   1.234  0.00  0.00    +0.007 A 
ATOM      5  C   LIG    1       -3.484   0.686   1.032  0.00  0.00    +0.022 A 
ATOM      6  C   LIG    1       -3.598   1.342  -0.177  0.00  0.00    +0.059 A 
ATOM      7 CL   LIG    1       -5.050   2.279  -0.473  0.00  0.00    -0.082 Cl
ATOM      8  C   LIG    1       -2.624   1.273  -1.121  0.00  0.00    +0.060 A 
ATOM      9 CL   LIG    1       -2.760   2.106  -2.667  0.00  0.00    -0.082 Cl
ATOM     10  C   LIG    1       -1.474   0.516  -0.857  0.00  0.00    +0.027 A 
ENDBRANCH   1   3
BRANCH   1  11
ATOM     11  N   LIG    1        1.130  -0.495   0.140  0.00  0.00    -0.090 N 
ATOM     12  N   LIG    1        2.048   0.254   0.879  0.00  0.00    +0.045 NA
ATOM     13  C   LIG    1        3.064   0.641   0.198  0.00  0.00    +0.317 C 
ATOM     14  C   LIG    1        2.952   0.169  -1.202  0.00  0.00    +0.229 C 
ATOM     15  C   LIG    1        1.680  -0.571  -1.165  0.00  0.00    +0.265 C 
ATOM     16  O   LIG    1        1.193  -1.162  -2.141  0.00  0.00    -0.272 OA
BRANCH  13  17
ATOM     17  N   LIG    1        4.138   1.415   0.728  0.00  0.00    -0.248 N 
ATOM     18  H   LIG    1        4.457   1.320   1.706  0.00  0.00    +0.288 HD
ATOM     19  H   LIG    1        4.613   2.094   0.110  0.00  0.00    +0.288 HD
ENDBRANCH  13  17
ENDBRANCH   1  11
TORSDOF 3
