REMARK  Name = molecules/RMEDXOLNCUSCGS-UHFFFAOYSA-N.pdb
REMARK                            x       y       z     vdW  Elec       q    Type
REMARK                         _______ _______ _______ _____ _____    ______ ____
ROOT
ATOM      1  C   LIG    1       -2.105  -0.653  -0.391  0.00  0.00    +0.027 C 
ATOM      2  C   LIG    1       -0.983  -1.252   0.049  0.00  0.00    +0.010 C 
ATOM      3  C   LIG    1        0.168  -1.445  -0.861  0.00  0.00    +0.113 C 
ATOM      4  N   LIG    1        0.421  -0.145  -1.465  0.00  0.00    -0.298 NA
ATOM      5  C   LIG    1       -0.734   0.072  -2.389  0.00  0.00    +0.091 C 
ATOM      6  C   LIG    1       -2.059  -0.167  -1.782  0.00  0.00    +0.069 C 
ENDROOT
BRANCH   1  17
ATOM      7  O   LIG    1       -2.160  -0.920   2.548  0.00  0.00    -0.246 OA
ATOM      8  C   LIG    1       -3.172  -0.648   1.844  0.00  0.00    +0.332 A 
ATOM      9  N   LIG    1       -4.409  -0.470   2.346  0.00  0.00    -0.306 N 
ATOM     10  H   LIG    1       -4.693  -0.533   3.351  0.00  0.00    +0.170 HD
ATOM     11  C   LIG    1       -5.243  -0.196   1.348  0.00  0.00    +0.067 A 
ATOM     12  C   LIG    1       -6.616   0.060   1.296  0.00  0.00    +0.028 A 
ATOM     13  C   LIG    1       -7.214   0.301   0.086  0.00  0.00    +0.002 A 
ATOM     14  C   LIG    1       -6.500   0.298  -1.087  0.00  0.00    +0.002 A 
ATOM     15  C   LIG    1       -5.127   0.039  -1.000  0.00  0.00    +0.028 A 
ATOM     16  C   LIG    1       -4.468  -0.209   0.177  0.00  0.00    +0.074 A 
ATOM     17  N   LIG    1       -3.173  -0.493   0.509  0.00  0.00    -0.265 N 
ENDBRANCH   1  17
BRANCH   4  18
ATOM     18  C   LIG    1        0.493   0.945  -0.555  0.00  0.00    +0.085 C 
BRANCH  18  19
ATOM     19  C   LIG    1        1.806   1.192   0.080  0.00  0.00    +0.023 C 
BRANCH  19  20
ATOM     20  C   LIG    1        2.415   0.129   0.927  0.00  0.00    +0.081 C 
BRANCH  20  21
ATOM     21  C   LIG    1        3.737   0.676   1.451  0.00  0.00    +0.163 C 
ATOM     22  O   LIG    1        3.671   1.396   2.491  0.00  0.00    -0.292 OA
BRANCH  21  23
ATOM     23  C   LIG    1        4.967   0.369   0.779  0.00  0.00    +0.018 A 
ATOM     24  C   LIG    1        6.148   0.861   1.307  0.00  0.00    +0.014 A 
ATOM     25  C   LIG    1        7.353   0.586   0.679  0.00  0.00    +0.039 A 
ATOM     26  C   LIG    1        7.381  -0.175  -0.467  0.00  0.00    +0.123 A 
ATOM     27  C   LIG    1        6.220  -0.668  -1.000  0.00  0.00    +0.039 A 
ATOM     28  F   LIG    1        8.592  -0.417  -1.042  0.00  0.00    -0.205 F 
ATOM     29  C   LIG    1        5.022  -0.382  -0.357  0.00  0.00    +0.014 A 
ENDBRANCH  21  23
ENDBRANCH  20  21
ENDBRANCH  19  20
ENDBRANCH  18  19
ENDBRANCH   4  18
TORSDOF 6
