REMARK  Name = molecules/RMHMFHUVIITRHF-UHFFFAOYSA-N.pdb
REMARK                            x       y       z     vdW  Elec       q    Type
REMARK                         _______ _______ _______ _____ _____    ______ ____
ROOT
ATOM      1  C   LIG    1       -0.099   0.186  -0.048  0.00  0.00    +0.248 C 
ATOM      2  O   LIG    1        0.597   1.203   0.231  0.00  0.00    -0.271 OA
ATOM      3  N   LIG    1       -1.470   0.316  -0.238  0.00  0.00    -0.262 N 
ATOM      4  C   LIG    1       -2.033   1.643  -0.262  0.00  0.00    +0.064 A 
ATOM      5  C   LIG    1       -3.242   2.090   0.240  0.00  0.00    +0.063 A 
ATOM      6  C   LIG    1       -4.270   1.263   0.872  0.00  0.00    +0.258 A 
ATOM      7  O   LIG    1       -5.049   1.844   1.661  0.00  0.00    -0.267 OA
ATOM      8  N   LIG    1       -4.454  -0.140   0.663  0.00  0.00    -0.319 N 
ATOM      9  H   LIG    1       -5.322  -0.557   1.047  0.00  0.00    +0.169 HD
ATOM     10  C   LIG    1       -3.604  -1.052  -0.008  0.00  0.00    +0.085 A 
ATOM     11  C   LIG    1       -4.177  -2.281  -0.280  0.00  0.00    +0.031 A 
ATOM     12  C   LIG    1       -3.421  -3.253  -0.936  0.00  0.00    +0.022 A 
ATOM     13  C   LIG    1       -2.110  -3.014  -1.322  0.00  0.00    +0.113 A 
ATOM     14  N   LIG    1       -1.613  -1.813  -1.034  0.00  0.00    -0.236 NA
ATOM     15  C   LIG    1       -3.622   3.409   0.157  0.00  0.00    +0.015 A 
ATOM     16  C   LIG    1       -2.756   4.285  -0.449  0.00  0.00    +0.001 A 
ATOM     17  C   LIG    1       -1.564   3.849  -0.947  0.00  0.00    +0.002 A 
ATOM     18  C   LIG    1       -1.166   2.525  -0.872  0.00  0.00    +0.027 A 
ATOM     19  C   LIG    1       -2.277  -0.851  -0.414  0.00  0.00    +0.164 A 
ENDROOT
BRANCH   1  20
ATOM     20  C   LIG    1        0.667  -1.095  -0.145  0.00  0.00    +0.184 C 
BRANCH  20  21
ATOM     21  N   LIG    1        2.038  -0.945   0.132  0.00  0.00    -0.291 NA
ATOM     22  C   LIG    1        2.484  -0.646   1.409  0.00  0.00    +0.100 C 
ATOM     23  C   LIG    1        3.920  -1.008   1.696  0.00  0.00    +0.099 C 
ATOM     24  N   LIG    1        4.742  -0.648   0.607  0.00  0.00    -0.303 NA
ATOM     25  C   LIG    1        5.247   0.679   0.569  0.00  0.00    +0.105 C 
ATOM     26  C   LIG    1        4.356  -1.213  -0.632  0.00  0.00    +0.099 C 
ATOM     27  C   LIG    1        2.886  -1.208  -0.932  0.00  0.00    +0.100 C 
ENDBRANCH  20  21
ENDBRANCH   1  20
TORSDOF 2
