REMARK  Name = molecules/RMRJXGBAOAMLHD-IHFGGWKQSA-N.pdb
REMARK                            x       y       z     vdW  Elec       q    Type
REMARK                         _______ _______ _______ _____ _____    ______ ____
ROOT
ATOM      1  C   LIG    1       -1.468  -1.324  -0.491  0.00  0.00    +0.112 C 
ATOM      2  C   LIG    1       -1.328  -1.574   1.010  0.00  0.00    +0.040 C 
ATOM      3  C   LIG    1       -0.237  -0.736   1.557  0.00  0.00    +0.012 C 
ATOM      4  C   LIG    1        0.594  -0.116   0.466  0.00  0.00    +0.000 C 
ATOM      5  C   LIG    1        1.873   0.508   0.912  0.00  0.00    +0.068 C 
ATOM      6  C   LIG    1        2.928  -0.455   1.469  0.00  0.00    +0.055 C 
ATOM      7  C   LIG    1        2.534  -1.878   1.353  0.00  0.00    -0.038 A 
ATOM      8  C   LIG    1        2.991  -2.920   2.131  0.00  0.00    +0.008 A 
ATOM      9  C   LIG    1        2.450  -4.214   1.982  0.00  0.00    +0.049 A 
ATOM     10  C   LIG    1        1.437  -4.447   1.037  0.00  0.00    +0.159 A 
ATOM     11  C   LIG    1        0.969  -3.413   0.252  0.00  0.00    +0.166 A 
ATOM     12  O   LIG    1       -0.002  -3.273  -0.741  0.00  0.00    -0.481 OA
ATOM     13  C   LIG    1        1.557  -2.233   0.475  0.00  0.00    +0.012 A 
ATOM     14  N   LIG    1        2.374   1.206  -0.222  0.00  0.00    -0.298 NA
ATOM     15  C   LIG    1        2.782   0.409  -1.296  0.00  0.00    +0.086 C 
ATOM     16  C   LIG    1        2.056  -0.873  -1.465  0.00  0.00    +0.031 C 
ATOM     17  C   LIG    1       -0.210   0.800  -0.401  0.00  0.00    +0.018 C 
ATOM     18  C   LIG    1        1.029  -1.248  -0.481  0.00  0.00    +0.047 C 
ATOM     19  C   LIG    1       -1.513   0.106  -0.833  0.00  0.00    +0.057 C 
ATOM     20  C   LIG    1       -0.176  -1.885  -1.063  0.00  0.00    +0.217 C 
ENDROOT
BRANCH   1  21
ATOM     21  O   LIG    1       -2.435  -2.172  -0.926  0.00  0.00    -0.373 OA
ATOM     22  C   LIG    1       -2.521  -2.481  -2.242  0.00  0.00    +0.194 C 
ENDBRANCH   1  21
BRANCH  10  23
ATOM     23  O   LIG    1        0.949  -5.733   0.941  0.00  0.00    -0.503 OA
ATOM     24  H   LIG    1        0.216  -5.905   0.259  0.00  0.00    +0.292 HD
ENDBRANCH  10  23
BRANCH  19  25
ATOM     25  C   LIG    1       -2.675   0.959  -0.798  0.00  0.00    +0.074 C 
ATOM     26  C   LIG    1       -3.557   0.795  -2.021  0.00  0.00    +0.042 C 
BRANCH  25  27
ATOM     27  C   LIG    1       -3.541   1.250   0.348  0.00  0.00    -0.009 C 
ATOM     28  C   LIG    1       -2.981   1.866   1.577  0.00  0.00    +0.013 C 
ATOM     29  C   LIG    1       -4.556   0.201   0.724  0.00  0.00    +0.013 C 
ATOM     30  C   LIG    1       -4.471   2.401  -0.174  0.00  0.00    +0.013 C 
ENDBRANCH  25  27
BRANCH  25  31
ATOM     31  O   LIG    1       -2.084   2.266  -1.092  0.00  0.00    -0.388 OA
ATOM     32  H   LIG    1       -1.795   2.256  -2.031  0.00  0.00    +0.210 HD
ENDBRANCH  25  31
ENDBRANCH  19  25
BRANCH  14  33
ATOM     33  C   LIG    1        2.571   2.574  -0.186  0.00  0.00    +0.088 C 
BRANCH  33  34
ATOM     34  C   LIG    1        3.660   3.101   0.704  0.00  0.00    +0.003 C 
ATOM     35  C   LIG    1        5.044   2.680   0.475  0.00  0.00    +0.005 C 
ATOM     36  C   LIG    1        4.639   4.036   0.022  0.00  0.00    +0.005 C 
ENDBRANCH  33  34
ENDBRANCH  14  33
TORSDOF 7
