REMARK  Name = molecules/RMUCZJUITONUFY-UHFFFAOYSA-N.pdb
REMARK                            x       y       z     vdW  Elec       q    Type
REMARK                         _______ _______ _______ _____ _____    ______ ____
ROOT
ATOM      1  C   LIG    1        0.658   0.387  -0.721  0.00  0.00    +0.051 C 
ENDROOT
BRANCH   1   2
ATOM      2  C   LIG    1       -0.705  -0.077  -0.382  0.00  0.00    -0.046 A 
ATOM      3  C   LIG    1       -1.595   0.843   0.127  0.00  0.00    +0.003 A 
ATOM      4  C   LIG    1       -2.888   0.467   0.464  0.00  0.00    +0.000 A 
ATOM      5  C   LIG    1       -3.283  -0.834   0.288  0.00  0.00    +0.000 A 
ATOM      6  C   LIG    1       -2.394  -1.748  -0.220  0.00  0.00    +0.000 A 
ATOM      7  C   LIG    1       -1.109  -1.388  -0.557  0.00  0.00    +0.003 A 
ENDBRANCH   1   2
BRANCH   1   8
ATOM      8  C   LIG    1        1.611   0.254   0.466  0.00  0.00    +0.103 C 
BRANCH   8   9
ATOM      9  N   LIG    1        2.896   0.730   0.023  0.00  0.00    -0.259 NA
ATOM     10  H   LIG    1        2.827   1.693  -0.374  0.00  0.00    +0.140 HD
BRANCH   9  11
ATOM     11  N   LIG    1        3.880   0.675   0.994  0.00  0.00    -0.270 NA
ATOM     12  H   LIG    1        3.584   0.984   1.929  0.00  0.00    +0.137 HD
ATOM     13  H   LIG    1        4.404  -0.223   0.982  0.00  0.00    +0.137 HD
ENDBRANCH   9  11
ENDBRANCH   8   9
ENDBRANCH   1   8
TORSDOF 4
