REMARK  Name = molecules/RNRHMQWZFJXKLZ-XUWXXGDYSA-N.pdb
REMARK                            x       y       z     vdW  Elec       q    Type
REMARK                         _______ _______ _______ _____ _____    ______ ____
ROOT
ATOM      1  C   LIG    1       -1.073  -1.508   1.067  0.00  0.00    +0.012 C 
ATOM      2  C   LIG    1       -1.485  -0.700  -0.085  0.00  0.00    -0.020 C 
ATOM      3  C   LIG    1       -2.459   0.417   0.171  0.00  0.00    -0.026 C 
ATOM      4  C   LIG    1       -2.059   1.390   1.206  0.00  0.00    +0.012 C 
ATOM      5  C   LIG    1       -3.827  -0.179   0.485  0.00  0.00    +0.012 C 
ATOM      6  C   LIG    1       -2.392   0.925  -1.269  0.00  0.00    -0.004 C 
ATOM      7  C   LIG    1       -0.903   1.163  -1.375  0.00  0.00    +0.013 C 
ATOM      8  C   LIG    1       -2.785  -0.348  -2.001  0.00  0.00    +0.004 C 
ATOM      9  C   LIG    1       -0.392  -0.258  -1.010  0.00  0.00    +0.029 C 
ATOM     10  C   LIG    1       -2.418  -1.504  -1.061  0.00  0.00    +0.008 C 
ENDROOT
BRANCH   9  11
ATOM     11  C   LIG    1        0.964  -0.165  -0.442  0.00  0.00    -0.002 A 
ATOM     12  C   LIG    1        1.522   0.866   0.245  0.00  0.00    +0.011 A 
ATOM     13  C   LIG    1        2.881   0.870   0.584  0.00  0.00    -0.047 A 
ATOM     14  C   LIG    1        3.497   2.057   1.235  0.00  0.00    +0.044 C 
ATOM     15  C   LIG    1        3.703  -0.150   0.250  0.00  0.00    -0.044 A 
ATOM     16  C   LIG    1        5.139  -0.146   0.670  0.00  0.00    +0.044 C 
ATOM     17  C   LIG    1        3.183  -1.196  -0.433  0.00  0.00    +0.049 A 
ATOM     18  C   LIG    1        1.835  -1.213  -0.781  0.00  0.00    +0.121 A 
BRANCH  18  19
ATOM     19  O   LIG    1        1.438  -2.341  -1.471  0.00  0.00    -0.506 OA
ATOM     20  H   LIG    1        0.498  -2.483  -1.724  0.00  0.00    +0.292 HD
ENDBRANCH  18  19
ENDBRANCH   9  11
TORSDOF 2
