REMARK  Name = molecules/ROBVIMPUHSLWNV-ZDUSSCGKSA-N.pdb
REMARK                            x       y       z     vdW  Elec       q    Type
REMARK                         _______ _______ _______ _____ _____    ______ ____
ROOT
ATOM      1  C   LIG    1       -0.909   0.113   0.146  0.00  0.00    +0.072 C 
ATOM      2  C   LIG    1       -1.374  -1.155   0.849  0.00  0.00    +0.030 C 
ATOM      3  C   LIG    1       -2.861  -1.372   0.650  0.00  0.00    +0.097 C 
ATOM      4  C   LIG    1       -3.001  -1.700  -0.807  0.00  0.00    +0.219 C 
ATOM      5  O   LIG    1       -3.746  -2.635  -1.196  0.00  0.00    -0.275 OA
ATOM      6  N   LIG    1       -2.246  -0.896  -1.701  0.00  0.00    -0.256 N 
ATOM      7  H   LIG    1       -2.241  -1.147  -2.715  0.00  0.00    +0.157 HD
ATOM      8  C   LIG    1       -1.537   0.208  -1.170  0.00  0.00    +0.230 C 
ATOM      9  O   LIG    1       -1.484   1.258  -1.893  0.00  0.00    -0.274 OA
ENDROOT
BRANCH   1  10
ATOM     10  C   LIG    1        0.591  -0.009   0.061  0.00  0.00    -0.032 A 
ATOM     11  C   LIG    1        1.298  -0.916   0.821  0.00  0.00    +0.006 A 
ATOM     12  C   LIG    1        2.678  -1.013   0.727  0.00  0.00    +0.023 A 
ATOM     13  C   LIG    1        3.349  -0.184  -0.145  0.00  0.00    +0.025 A 
ATOM     14  C   LIG    1        2.657   0.728  -0.911  0.00  0.00    +0.023 A 
ATOM     15  C   LIG    1        1.289   0.816  -0.811  0.00  0.00    +0.006 A 
BRANCH  13  16
ATOM     16  N   LIG    1        4.755  -0.263  -0.259  0.00  0.00    -0.358 N 
ATOM     17  H   LIG    1        5.241  -1.147   0.034  0.00  0.00    +0.142 HD
ATOM     18  H   LIG    1        5.330   0.531  -0.625  0.00  0.00    +0.142 HD
ENDBRANCH  13  16
ENDBRANCH   1  10
BRANCH   1  19
ATOM     19  C   LIG    1       -1.209   1.242   1.075  0.00  0.00    +0.017 C 
ATOM     20  C   LIG    1       -0.801   2.591   0.623  0.00  0.00    +0.005 C 
ENDBRANCH   1  19
TORSDOF 3
