REMARK  Name = molecules/ROSXARVHJNYYDO-UHFFFAOYSA-N.pdb
REMARK                            x       y       z     vdW  Elec       q    Type
REMARK                         _______ _______ _______ _____ _____    ______ ____
ROOT
ATOM      1  N   LIG    1        1.655   0.168   0.645  0.00  0.00    -0.340 N 
ATOM      2  C   LIG    1        2.667  -0.703   0.595  0.00  0.00    +0.104 A 
ATOM      3  C   LIG    1        3.907  -0.401   0.064  0.00  0.00    +0.077 A 
ATOM      4  I   LIG    1        5.491  -1.786  -0.011  0.00  0.00    -0.038 I 
ATOM      5  C   LIG    1        4.134   0.863  -0.448  0.00  0.00    +0.208 A 
ATOM      6  C   LIG    1        3.071   1.768  -0.392  0.00  0.00    +0.077 A 
ATOM      7  I   LIG    1        3.326   3.721  -1.150  0.00  0.00    -0.038 I 
ATOM      8  O   LIG    1        5.232   1.218  -0.948  0.00  0.00    -0.286 OA
ATOM      9  C   LIG    1        1.852   1.415   0.150  0.00  0.00    +0.104 A 
ENDROOT
BRANCH   1  10
ATOM     10  C   LIG    1        0.350  -0.139   1.192  0.00  0.00    +0.241 C 
BRANCH  10  11
ATOM     11  C   LIG    1       -0.576  -0.687   0.193  0.00  0.00    +0.327 C 
ATOM     12  O   LIG    1       -0.751  -1.924   0.125  0.00  0.00    -0.249 OA
BRANCH  11  13
ATOM     13  O   LIG    1       -1.264   0.129  -0.680  0.00  0.00    -0.463 OA
BRANCH  13  14
ATOM     14  C   LIG    1       -2.170  -0.298  -1.666  0.00  0.00    +0.232 C 
BRANCH  14  15
ATOM     15  C   LIG    1       -3.339  -1.014  -0.980  0.00  0.00    +0.038 C 
ATOM     16  C   LIG    1       -3.947   0.043  -0.045  0.00  0.00    +0.007 C 
ENDBRANCH  14  15
ENDBRANCH  13  14
ENDBRANCH  11  13
ENDBRANCH  10  11
ENDBRANCH   1  10
TORSDOF 5
