REMARK  Name = molecules/RPBAFSBGYDKNRG-NJBDSQKTSA-N.pdb
REMARK                            x       y       z     vdW  Elec       q    Type
REMARK                         _______ _______ _______ _____ _____    ______ ____
ROOT
ATOM      1  CA  LIG    1       -3.796   0.534  -0.599  0.00  0.00    +0.201 C 
ATOM      2  C   LIG    1       -3.631  -0.621   0.343  0.00  0.00    +0.042 C 
ATOM      3  C   LIG    1       -3.045  -0.131   1.626  0.00  0.00    +0.025 C 
ATOM      4  C   LIG    1       -4.909  -1.373   0.583  0.00  0.00    +0.025 C 
ATOM      5  S   LIG    1       -2.440  -1.653  -0.603  0.00  0.00    -0.127 S 
ATOM      6  C   LIG    1       -2.022  -0.413  -1.892  0.00  0.00    +0.165 C 
ATOM      7  CA  LIG    1       -0.620   0.103  -1.818  0.00  0.00    +0.190 C 
ATOM      8  C   LIG    1       -1.307   1.423  -1.668  0.00  0.00    +0.240 C 
ATOM      9  O   LIG    1       -0.959   2.603  -1.861  0.00  0.00    -0.273 OA
ATOM     10  N   LIG    1       -2.522   0.788  -1.214  0.00  0.00    -0.271 N 
ENDROOT
BRANCH   7  11
ATOM     11  N   LIG    1        0.149  -0.254  -0.671  0.00  0.00    -0.300 N 
ATOM     12  H   LIG    1       -0.250  -0.248   0.301  0.00  0.00    +0.150 HD
ATOM     13  C   LIG    1        1.504  -0.636  -0.827  0.00  0.00    +0.235 C 
ATOM     14  O   LIG    1        1.996  -0.649  -1.980  0.00  0.00    -0.274 OA
BRANCH  13  15
ATOM     15  CA  LIG    1        2.349  -1.015   0.314  0.00  0.00    +0.164 C 
BRANCH  15  16
ATOM     16  C   LIG    1        3.491  -0.078   0.523  0.00  0.00    -0.044 C 
ATOM     17  C   LIG    1        4.420  -0.380   1.653  0.00  0.00    +0.059 C 
ATOM     18  C   LIG    1        5.809  -0.059   1.224  0.00  0.00    -0.026 C 
ATOM     19  C   LIG    1        6.013   1.004   0.456  0.00  0.00    -0.027 C 
ATOM     20  C   LIG    1        4.851   1.864   0.032  0.00  0.00    +0.054 C 
ATOM     21  C   LIG    1        3.677   0.967  -0.241  0.00  0.00    -0.021 C 
ENDBRANCH  15  16
BRANCH  15  22
ATOM     22  N   LIG    1        1.528  -0.951   1.531  0.00  0.00    -0.317 NA
ATOM     23  H1  LIG    1        2.145  -1.301   2.298  0.00  0.00    +0.119 HD
ATOM     24  H2  LIG    1        0.786  -1.687   1.393  0.00  0.00    +0.119 HD
ENDBRANCH  15  22
ENDBRANCH  13  15
ENDBRANCH   7  11
BRANCH   1  25
ATOM     25  C   LIG    1       -4.849   0.365  -1.597  0.00  0.00    +0.327 C 
ATOM     26  OXT LIG    1       -6.053   0.134  -1.342  0.00  0.00    -0.249 OA
BRANCH  25  27
ATOM     27  O   LIG    1       -4.513   0.466  -2.944  0.00  0.00    -0.479 OA
ATOM     28  H   LIG    1       -4.406   1.375  -3.389  0.00  0.00    +0.295 HD
ENDBRANCH  25  27
ENDBRANCH   1  25
TORSDOF 6
