REMARK  Name = molecules/RPLCPCMSCLEKRS-BPIQYHPVSA-N.pdb
REMARK                            x       y       z     vdW  Elec       q    Type
REMARK                         _______ _______ _______ _____ _____    ______ ____
ROOT
ATOM      1  C   LIG    1        2.985   1.030  -1.230  0.00  0.00    +0.009 C 
ATOM      2  C   LIG    1        3.909   1.712  -0.277  0.00  0.00    +0.005 C 
ATOM      3  C   LIG    1        5.015   0.679   0.028  0.00  0.00    +0.027 C 
ATOM      4  C   LIG    1        4.259  -0.402   0.762  0.00  0.00    -0.027 C 
ATOM      5  C   LIG    1        3.014  -0.699   0.483  0.00  0.00    -0.070 C 
ATOM      6  C   LIG    1        2.321  -1.776   1.281  0.00  0.00    +0.031 C 
ATOM      7  C   LIG    1        0.949  -2.076   0.810  0.00  0.00    +0.009 C 
ATOM      8  C   LIG    1        0.156  -0.980   0.231  0.00  0.00    +0.001 C 
ATOM      9  C   LIG    1       -1.092  -0.567   0.860  0.00  0.00    +0.003 C 
ATOM     10  C   LIG    1       -1.952  -1.508   1.577  0.00  0.00    +0.008 C 
ATOM     11  C   LIG    1       -3.296  -0.762   1.592  0.00  0.00    +0.049 C 
ATOM     12  C   LIG    1       -3.136   0.403   0.604  0.00  0.00    +0.132 C 
ATOM     13  C   LIG    1       -2.020  -0.102  -0.275  0.00  0.00    +0.017 C 
ATOM     14  C   LIG    1       -1.307   0.928  -1.077  0.00  0.00    +0.041 C 
ATOM     15  C   LIG    1        0.035   1.296  -0.491  0.00  0.00    -0.072 C 
ATOM     16  C   LIG    1        0.361   2.577  -0.549  0.00  0.00    +0.008 C 
ATOM     17  C   LIG    1        0.943   0.355   0.123  0.00  0.00    +0.025 C 
ATOM     18  C   LIG    1        2.201  -0.020  -0.575  0.00  0.00    +0.022 C 
ENDROOT
BRANCH  12  19
ATOM     19  C   LIG    1       -2.675   1.578   1.383  0.00  0.00    -0.070 C 
ATOM     20  C   LIG    1       -2.300   2.543   2.000  0.00  0.00    +0.007 C 
ENDBRANCH  12  19
BRANCH  12  21
ATOM     21  O   LIG    1       -4.308   0.669  -0.056  0.00  0.00    -0.376 OA
ATOM     22  H   LIG    1       -5.063   0.464   0.533  0.00  0.00    +0.211 HD
ENDBRANCH  12  21
BRANCH  13  23
ATOM     23  C   LIG    1       -2.541  -1.254  -1.065  0.00  0.00    +0.008 C 
ATOM     24  C   LIG    1       -3.526  -0.847  -2.128  0.00  0.00    +0.004 C 
ENDBRANCH  13  23
TORSDOF 3
