REMARK  Name = molecules/RPTUSVTUFVMDQK-UHFFFAOYSA-N.pdb
REMARK                            x       y       z     vdW  Elec       q    Type
REMARK                         _______ _______ _______ _____ _____    ______ ____
ROOT
ATOM      1  C   LIG    1        1.293  -0.234  -0.598  0.00  0.00    +0.162 A 
ATOM      2  C   LIG    1        0.000   0.019  -0.199  0.00  0.00    +0.026 A 
ATOM      3  C   LIG    1       -0.894  -1.027   0.034  0.00  0.00    +0.005 A 
ATOM      4  C   LIG    1       -2.199  -0.809   0.428  0.00  0.00    +0.010 A 
ATOM      5  C   LIG    1       -2.605   0.501   0.588  0.00  0.00    +0.001 A 
ATOM      6  C   LIG    1       -1.730   1.556   0.359  0.00  0.00    +0.001 A 
ATOM      7  C   LIG    1       -0.416  -2.305  -0.155  0.00  0.00    +0.143 A 
ATOM      8  N   LIG    1        0.837  -2.530  -0.541  0.00  0.00    -0.155 NA
ATOM      9  C   LIG    1       -0.438   1.322  -0.031  0.00  0.00    +0.012 A 
ATOM     10  N   LIG    1        1.649  -1.518  -0.750  0.00  0.00    -0.133 NA
ENDROOT
BRANCH   1  11
ATOM     11  N   LIG    1        2.235   0.795  -0.843  0.00  0.00    -0.266 N 
ATOM     12  H   LIG    1        2.273   1.393  -1.695  0.00  0.00    +0.168 HD
BRANCH  11  13
ATOM     13  N   LIG    1        3.191   0.996   0.190  0.00  0.00    -0.255 NA
ATOM     14  H   LIG    1        2.619   1.139   1.053  0.00  0.00    +0.140 HD
ATOM     15  H   LIG    1        3.649   0.049   0.339  0.00  0.00    +0.140 HD
ENDBRANCH  11  13
ENDBRANCH   1  11
TORSDOF 2
