REMARK  Name = molecules/RPVGLMKJGQMQSN-UHFFFAOYSA-N.pdb
REMARK                            x       y       z     vdW  Elec       q    Type
REMARK                         _______ _______ _______ _____ _____    ______ ____
ROOT
ATOM      1  C   LIG    1        1.782  -1.927   0.262  0.00  0.00    +0.044 C 
ATOM      2  C   LIG    1        1.195  -0.574   0.148  0.00  0.00    -0.041 A 
ATOM      3  C   LIG    1        2.030   0.522   0.192  0.00  0.00    +0.007 A 
ATOM      4  C   LIG    1        1.550   1.813   0.091  0.00  0.00    +0.048 A 
ATOM      5  C   LIG    1        0.199   2.047  -0.058  0.00  0.00    +0.143 A 
ATOM      6  C   LIG    1       -0.646   0.958  -0.103  0.00  0.00    +0.112 A 
ATOM      7  N   LIG    1       -1.953   1.114  -0.245  0.00  0.00    -0.251 NA
ATOM      8  C   LIG    1       -2.819   0.089  -0.295  0.00  0.00    +0.111 A 
ATOM      9  C   LIG    1       -2.332  -1.205  -0.194  0.00  0.00    +0.020 A 
ATOM     10  C   LIG    1       -0.986  -1.436  -0.045  0.00  0.00    +0.012 A 
ATOM     11  C   LIG    1       -0.149  -0.346  -0.001  0.00  0.00    +0.007 A 
ENDROOT
BRANCH   5  12
ATOM     12  O   LIG    1       -0.292   3.348  -0.160  0.00  0.00    -0.505 OA
ATOM     13  H   LIG    1       -1.290   3.476  -0.269  0.00  0.00    +0.292 HD
ENDBRANCH   5  12
TORSDOF 1
