REMARK  Name = molecules/RQXCLMGKHJWMOA-UHFFFAOYSA-N.pdb
REMARK                            x       y       z     vdW  Elec       q    Type
REMARK                         _______ _______ _______ _____ _____    ______ ____
ROOT
ATOM      1  C   LIG    1       -1.333   0.057  -0.756  0.00  0.00    +0.117 C 
ENDROOT
BRANCH   1   2
ATOM      2  C   LIG    1       -1.783  -1.123  -0.022  0.00  0.00    -0.012 A 
ATOM      3  C   LIG    1       -1.337  -1.523   1.221  0.00  0.00    +0.007 A 
ATOM      4  C   LIG    1       -1.801  -2.638   1.858  0.00  0.00    +0.000 A 
ATOM      5  C   LIG    1       -2.765  -3.429   1.260  0.00  0.00    +0.000 A 
ATOM      6  C   LIG    1       -3.228  -3.053   0.020  0.00  0.00    +0.000 A 
ATOM      7  C   LIG    1       -2.754  -1.928  -0.613  0.00  0.00    +0.007 A 
ENDBRANCH   1   2
BRANCH   1   8
ATOM      8  C   LIG    1       -2.255   1.201  -0.671  0.00  0.00    -0.012 A 
ATOM      9  C   LIG    1       -2.517   1.795   0.535  0.00  0.00    +0.007 A 
ATOM     10  C   LIG    1       -3.397   2.886   0.601  0.00  0.00    +0.000 A 
ATOM     11  C   LIG    1       -4.004   3.367  -0.542  0.00  0.00    +0.000 A 
ATOM     12  C   LIG    1       -3.741   2.772  -1.745  0.00  0.00    +0.000 A 
ATOM     13  C   LIG    1       -2.869   1.696  -1.788  0.00  0.00    +0.007 A 
ENDBRANCH   1   8
BRANCH   1  14
ATOM     14  O   LIG    1       -1.282  -0.326  -2.123  0.00  0.00    -0.379 OA
ATOM     15  H   LIG    1       -1.044  -1.266  -2.223  0.00  0.00    +0.211 HD
ENDBRANCH   1  14
BRANCH   1  16
ATOM     16  C   LIG    1        0.046   0.545  -0.421  0.00  0.00    +0.060 C 
BRANCH  16  17
ATOM     17  C   LIG    1        1.121  -0.486  -0.615  0.00  0.00    +0.088 C 
BRANCH  17  18
ATOM     18  N   LIG    1        2.368   0.107  -0.267  0.00  0.00    -0.302 NA
ATOM     19  C   LIG    1        2.545   0.404   1.112  0.00  0.00    +0.084 C 
ATOM     20  C   LIG    1        3.800  -0.277   1.663  0.00  0.00    +0.015 C 
ATOM     21  C   LIG    1        5.011   0.158   0.907  0.00  0.00    +0.002 C 
ATOM     22  C   LIG    1        4.696   0.508  -0.527  0.00  0.00    +0.015 C 
ATOM     23  C   LIG    1        3.517  -0.379  -0.947  0.00  0.00    +0.084 C 
ENDBRANCH  17  18
ENDBRANCH  16  17
ENDBRANCH   1  16
TORSDOF 6
