REMARK  Name = molecules/RQZAXGRLVPAYTJ-GQFGMJRRSA-N.pdb
REMARK                            x       y       z     vdW  Elec       q    Type
REMARK                         _______ _______ _______ _____ _____    ______ ____
ROOT
ATOM      1  C   LIG    1        1.297  -1.537   0.832  0.00  0.00    +0.016 C 
ATOM      2  C   LIG    1        1.516  -0.243   0.134  0.00  0.00    +0.018 C 
ATOM      3  C   LIG    1        0.960   0.845   1.018  0.00  0.00    +0.011 C 
ATOM      4  C   LIG    1       -0.530   0.814   1.129  0.00  0.00    +0.005 C 
ATOM      5  C   LIG    1       -1.285   0.427  -0.071  0.00  0.00    +0.006 C 
ATOM      6  C   LIG    1       -2.690  -0.023   0.249  0.00  0.00    -0.003 C 
ATOM      7  C   LIG    1       -2.724  -1.148   1.260  0.00  0.00    +0.016 C 
ATOM      8  C   LIG    1       -3.436   1.195   0.756  0.00  0.00    +0.019 C 
ATOM      9  C   LIG    1       -4.821   0.827   1.244  0.00  0.00    +0.080 C 
ATOM     10  C   LIG    1       -5.403  -0.181   0.296  0.00  0.00    +0.156 C 
ATOM     11  O   LIG    1       -6.509  -0.727   0.563  0.00  0.00    -0.293 OA
ATOM     12  C   LIG    1       -4.713  -0.545  -0.935  0.00  0.00    +0.050 C 
ATOM     13  C   LIG    1       -3.400  -0.478  -0.987  0.00  0.00    -0.035 C 
ATOM     14  C   LIG    1       -2.653  -0.832  -2.199  0.00  0.00    -0.050 C 
ATOM     15  C   LIG    1       -1.339  -0.891  -2.162  0.00  0.00    -0.019 C 
ATOM     16  C   LIG    1       -3.448  -1.107  -3.422  0.00  0.00    +0.044 C 
ATOM     17  C   LIG    1       -0.612  -0.613  -0.938  0.00  0.00    +0.020 C 
ATOM     18  C   LIG    1        2.930   0.012  -0.312  0.00  0.00    +0.176 C 
ATOM     19  C   LIG    1        2.978  -0.189  -1.817  0.00  0.00    +0.057 C 
ATOM     20  C   LIG    1        1.626  -0.866  -2.114  0.00  0.00    +0.009 C 
ATOM     21  C   LIG    1        0.765  -0.107  -1.183  0.00  0.00    +0.006 C 
ENDROOT
BRANCH  18  22
ATOM     22  C   LIG    1        3.792  -1.046   0.272  0.00  0.00    +0.174 C 
ATOM     23  C   LIG    1        4.886  -0.781   1.242  0.00  0.00    +0.090 C 
ATOM     24  O   LIG    1        3.609  -2.206  -0.048  0.00  0.00    -0.293 OA
ENDBRANCH  18  22
BRANCH  18  25
ATOM     25  O   LIG    1        3.280   1.298   0.104  0.00  0.00    -0.450 OA
BRANCH  25  26
ATOM     26  C   LIG    1        4.492   1.918  -0.117  0.00  0.00    +0.305 C 
ATOM     27  C   LIG    1        4.733   3.270   0.375  0.00  0.00    +0.136 C 
ATOM     28  O   LIG    1        5.372   1.292  -0.745  0.00  0.00    -0.251 OA
ENDBRANCH  25  26
ENDBRANCH  18  25
TORSDOF 3
