REMARK  Name = molecules/RRAFCDWBNXTKKO-UHFFFAOYSA-N.pdb
REMARK                            x       y       z     vdW  Elec       q    Type
REMARK                         _______ _______ _______ _____ _____    ______ ____
ROOT
ATOM      1  C   LIG    1        1.681   0.278   0.491  0.00  0.00    +0.162 A 
ATOM      2  C   LIG    1        1.507   1.625   0.718  0.00  0.00    +0.158 A 
ATOM      3  C   LIG    1        0.334   2.274   0.407  0.00  0.00    +0.049 A 
ATOM      4  C   LIG    1       -0.713   1.563  -0.152  0.00  0.00    +0.008 A 
ATOM      5  C   LIG    1       -0.582   0.211  -0.396  0.00  0.00    -0.040 A 
ATOM      6  C   LIG    1        0.616  -0.399  -0.067  0.00  0.00    +0.053 A 
ENDROOT
BRANCH   1   7
ATOM      7  O   LIG    1        2.857  -0.387   0.800  0.00  0.00    -0.491 OA
ATOM      8  C   LIG    1        3.072  -1.747   0.587  0.00  0.00    +0.277 C 
ENDBRANCH   1   7
BRANCH   2   9
ATOM      9  O   LIG    1        2.565   2.326   1.279  0.00  0.00    -0.503 OA
ATOM     10  H   LIG    1        2.526   3.317   1.480  0.00  0.00    +0.292 HD
ENDBRANCH   2   9
BRANCH   5  11
ATOM     11  C   LIG    1       -1.711  -0.567  -1.002  0.00  0.00    +0.061 C 
BRANCH  11  12
ATOM     12  C   LIG    1       -2.537  -1.075   0.110  0.00  0.00    -0.030 C 
ATOM     13  C   LIG    1       -3.816  -0.743   0.225  0.00  0.00    +0.004 C 
ENDBRANCH  11  12
ENDBRANCH   5  11
TORSDOF 4
