REMARK  Name = molecules/RRHJHSBDJDZUGL-UHFFFAOYSA-N.pdb
REMARK                            x       y       z     vdW  Elec       q    Type
REMARK                         _______ _______ _______ _____ _____    ______ ____
ROOT
ATOM      1  N   LIG    1       -0.477  -0.412  -1.018  0.00  0.00    -0.256 N 
ATOM      2  C   LIG    1        0.840  -0.317  -0.517  0.00  0.00    +0.369 C 
ATOM      3  O   LIG    1        1.014  -0.003   0.687  0.00  0.00    -0.233 OA
ATOM      4  N   LIG    1        1.967  -0.570  -1.348  0.00  0.00    -0.158 N 
ATOM      5  H   LIG    1        1.861  -0.835  -2.359  0.00  0.00    +0.256 HD
ATOM      6  H   LIG    1       -0.606  -0.676  -2.027  0.00  0.00    +0.158 HD
ENDROOT
BRANCH   1   7
ATOM      7  C   LIG    1       -1.633  -0.174  -0.243  0.00  0.00    +0.042 A 
ATOM      8  C   LIG    1       -2.222  -1.219   0.438  0.00  0.00    -0.029 A 
ATOM      9  C   LIG    1       -3.362  -0.943   1.192  0.00  0.00    +0.005 A 
ATOM     10  C   LIG    1       -3.899   0.329   1.268  0.00  0.00    +0.001 A 
ATOM     11  C   LIG    1       -3.298   1.370   0.580  0.00  0.00    +0.005 A 
ATOM     12  C   LIG    1       -1.676  -2.604   0.383  0.00  0.00    +0.045 C 
ATOM     13  C   LIG    1       -2.162   1.098  -0.173  0.00  0.00    -0.029 A 
ATOM     14  C   LIG    1       -1.510   2.202  -0.913  0.00  0.00    +0.045 C 
ENDBRANCH   1   7
BRANCH   4  15
ATOM     15  C   LIG    1        3.279  -0.468  -0.822  0.00  0.00    +0.378 C 
ATOM     16  N   LIG    1        4.298  -0.689  -1.548  0.00  0.00    -0.131 NA
ATOM     17  H   LIG    1        5.278  -0.641  -1.262  0.00  0.00    +0.306 HD
BRANCH  15  18
ATOM     18  N   LIG    1        3.469  -0.111   0.541  0.00  0.00    -0.280 N 
ATOM     19  H   LIG    1        3.171  -0.783   1.281  0.00  0.00    +0.257 HD
ATOM     20  C   LIG    1        4.059   1.147   0.941  0.00  0.00    +0.239 C 
ENDBRANCH  15  18
ENDBRANCH   4  15
TORSDOF 3
