REMARK  Name = molecules/RRJHESVQVSRQEX-SUYBPPKGSA-N.pdb
REMARK                            x       y       z     vdW  Elec       q    Type
REMARK                         _______ _______ _______ _____ _____    ______ ____
ROOT
ATOM      1  CA  LIG    1       -2.071  -0.559   0.871  0.00  0.00    +0.123 C 
ATOM      2  C   LIG    1       -2.609  -1.556   0.218  0.00  0.00    -0.021 C 
ATOM      3  C   LIG    1       -2.571  -1.729  -1.272  0.00  0.00    +0.104 C 
ATOM      4  S   LIG    1       -0.977  -1.094  -1.864  0.00  0.00    -0.131 S 
ATOM      5  C   LIG    1       -1.160   0.597  -1.243  0.00  0.00    +0.169 C 
ATOM      6  CA  LIG    1        0.106   1.384  -1.036  0.00  0.00    +0.191 C 
ATOM      7  C   LIG    1       -0.628   1.655   0.268  0.00  0.00    +0.244 C 
ATOM      8  O   LIG    1       -0.526   2.620   1.057  0.00  0.00    -0.273 OA
ATOM      9  N   LIG    1       -1.371   0.469   0.176  0.00  0.00    -0.249 N 
ENDROOT
BRANCH   6  10
ATOM     10  N   LIG    1        1.297   0.643  -0.823  0.00  0.00    -0.298 N 
ATOM     11  H   LIG    1        1.245  -0.219  -0.237  0.00  0.00    +0.150 HD
ATOM     12  C   LIG    1        2.575   0.983  -1.349  0.00  0.00    +0.259 C 
ATOM     13  O   LIG    1        2.619   2.021  -2.050  0.00  0.00    -0.271 OA
BRANCH  12  14
ATOM     14  C   LIG    1        3.789   0.210  -1.120  0.00  0.00    +0.291 C 
BRANCH  14  15
ATOM     15  C   LIG    1        4.923   0.949  -0.530  0.00  0.00    +0.002 A 
ATOM     16  C   LIG    1        6.111   0.297  -0.210  0.00  0.00    +0.008 A 
ATOM     17  C   LIG    1        7.177   0.965   0.348  0.00  0.00    +0.000 A 
ATOM     18  C   LIG    1        7.099   2.305   0.608  0.00  0.00    +0.000 A 
ATOM     19  C   LIG    1        5.945   2.976   0.305  0.00  0.00    +0.000 A 
ATOM     20  C   LIG    1        4.877   2.285  -0.259  0.00  0.00    +0.008 A 
ENDBRANCH  14  15
BRANCH  14  21
ATOM     21  O   LIG    1        3.525  -0.984  -0.358  0.00  0.00    -0.449 OA
BRANCH  21  22
ATOM     22  C   LIG    1        3.642  -2.252  -0.845  0.00  0.00    +0.446 C 
ATOM     23  O   LIG    1        4.002  -2.421  -2.031  0.00  0.00    -0.255 OA
ENDBRANCH  21  22
ENDBRANCH  14  21
ENDBRANCH  12  14
ENDBRANCH   6  10
BRANCH   1  24
ATOM     24  C   LIG    1       -2.142  -0.441   2.346  0.00  0.00    +0.351 C 
ATOM     25  O   LIG    1       -1.584   0.552   2.905  0.00  0.00    -0.244 OA
BRANCH  24  26
ATOM     26  OXT LIG    1       -2.776  -1.342   3.135  0.00  0.00    -0.476 OA
ATOM     27  HXT LIG    1       -2.215  -1.819   3.857  0.00  0.00    +0.295 HD
ENDBRANCH  24  26
ENDBRANCH   1  24
BRANCH   2  28
ATOM     28  C   LIG    1       -3.320  -2.640   0.881  0.00  0.00    +0.111 C 
BRANCH  28  29
ATOM     29  S   LIG    1       -5.070  -2.691   0.385  0.00  0.00    -0.080 S 
BRANCH  29  30
ATOM     30  C   LIG    1       -5.991  -1.297   0.990  0.00  0.00    +0.209 A 
ATOM     31  N   LIG    1       -6.622  -1.243   2.201  0.00  0.00    -0.102 NA
ATOM     32  N   LIG    1       -7.184  -0.052   2.292  0.00  0.00    -0.022 NA
ATOM     33  N   LIG    1       -6.934   0.633   1.202  0.00  0.00    -0.043 NA
ATOM     34  N   LIG    1       -6.197  -0.135   0.396  0.00  0.00    -0.223 N 
ATOM     35  C   LIG    1       -5.749   0.308  -0.897  0.00  0.00    +0.177 C 
ENDBRANCH  29  30
ENDBRANCH  28  29
ENDBRANCH   2  28
TORSDOF 10
