REMARK  Name = molecules/RRJQTGHQFYTZOW-ILWKUFEGSA-N.pdb
REMARK                            x       y       z     vdW  Elec       q    Type
REMARK                         _______ _______ _______ _____ _____    ______ ____
ROOT
ATOM      1  C   LIG    1        2.315   0.073   0.222  0.00  0.00    +0.146 C 
ATOM      2  C   LIG    1        2.006  -0.501   1.364  0.00  0.00    +0.019 C 
ATOM      3  C   LIG    1        0.671  -1.083   1.692  0.00  0.00    +0.036 C 
ATOM      4  C   LIG    1        0.136  -1.672   0.416  0.00  0.00    +0.025 C 
ATOM      5  C   LIG    1       -1.257  -2.245   0.550  0.00  0.00    +0.065 C 
ATOM      6  C   LIG    1       -2.327  -1.271   0.868  0.00  0.00    +0.054 C 
ATOM      7  C   LIG    1       -1.952   0.136   0.693  0.00  0.00    -0.038 A 
ATOM      8  C   LIG    1       -2.669   1.192   1.205  0.00  0.00    +0.008 A 
ATOM      9  C   LIG    1       -2.220   2.501   0.986  0.00  0.00    +0.050 A 
ATOM     10  C   LIG    1       -1.068   2.748   0.265  0.00  0.00    +0.162 A 
ATOM     11  C   LIG    1       -0.340   1.674  -0.255  0.00  0.00    +0.167 A 
ATOM     12  O   LIG    1        0.823   1.537  -1.002  0.00  0.00    -0.476 OA
ATOM     13  C   LIG    1       -0.822   0.438  -0.012  0.00  0.00    +0.012 A 
ATOM     14  N   LIG    1       -1.471  -2.995  -0.658  0.00  0.00    -0.302 NA
ATOM     15  C   LIG    1       -2.499  -3.955  -0.603  0.00  0.00    +0.105 C 
ATOM     16  C   LIG    1       -1.460  -2.223  -1.847  0.00  0.00    +0.085 C 
ATOM     17  C   LIG    1       -0.577  -1.049  -1.901  0.00  0.00    +0.031 C 
ATOM     18  C   LIG    1        0.052  -0.592  -0.630  0.00  0.00    +0.049 C 
ATOM     19  C   LIG    1        1.292   0.179  -0.860  0.00  0.00    +0.250 C 
ENDROOT
BRANCH  10  20
ATOM     20  O   LIG    1       -0.613   4.021   0.040  0.00  0.00    -0.491 OA
ATOM     21  C   LIG    1       -1.212   5.195   0.482  0.00  0.00    +0.277 C 
ENDBRANCH  10  20
BRANCH   1  22
ATOM     22  O   LIG    1        3.539   0.614  -0.100  0.00  0.00    -0.427 OA
BRANCH  22  23
ATOM     23  C   LIG    1        4.676   0.689   0.613  0.00  0.00    +0.309 C 
ATOM     24  O   LIG    1        4.729   0.220   1.759  0.00  0.00    -0.251 OA
ATOM     25  C   LIG    1        5.916   1.328   0.076  0.00  0.00    +0.136 C 
ENDBRANCH  22  23
ENDBRANCH   1  22
TORSDOF 3
