REMARK  Name = molecules/RRWTWWBIHKIYTH-CYBMUJFWSA-N.pdb
REMARK                            x       y       z     vdW  Elec       q    Type
REMARK                         _______ _______ _______ _____ _____    ______ ____
ROOT
ATOM      1  C   LIG    1        0.252   0.033   1.090  0.00  0.00    +0.051 C 
ATOM      2  C   LIG    1        0.206  -1.465   1.086  0.00  0.00    +0.024 C 
ENDROOT
BRANCH   1   3
ATOM      3  N   LIG    1        0.651   0.603  -0.161  0.00  0.00    -0.313 NA
ATOM      4  H   LIG    1        0.889   1.608  -0.002  0.00  0.00    +0.122 HD
BRANCH   3   5
ATOM      5  C   LIG    1        1.826  -0.023  -0.728  0.00  0.00    +0.081 C 
BRANCH   5   6
ATOM      6  C   LIG    1        3.069   0.248   0.085  0.00  0.00    +0.018 C 
BRANCH   6   7
ATOM      7  C   LIG    1        4.258  -0.417  -0.526  0.00  0.00    -0.016 C 
ATOM      8  C   LIG    1        5.459  -0.132   0.377  0.00  0.00    +0.007 C 
ATOM      9  C   LIG    1        4.505   0.087  -1.933  0.00  0.00    +0.007 C 
ENDBRANCH   6   7
ENDBRANCH   5   6
ENDBRANCH   3   5
ENDBRANCH   1   3
BRANCH   1  10
ATOM     10  C   LIG    1       -1.097   0.552   1.486  0.00  0.00    +0.018 C 
BRANCH  10  11
ATOM     11  C   LIG    1       -2.164   0.219   0.467  0.00  0.00    +0.002 C 
BRANCH  11  12
ATOM     12  C   LIG    1       -3.473   0.773   0.957  0.00  0.00    +0.003 C 
BRANCH  12  13
ATOM     13  C   LIG    1       -4.593   0.478  -0.016  0.00  0.00    -0.017 C 
ATOM     14  C   LIG    1       -4.816  -0.980  -0.251  0.00  0.00    +0.007 C 
ATOM     15  C   LIG    1       -4.322   1.121  -1.371  0.00  0.00    +0.007 C 
ENDBRANCH  12  13
ENDBRANCH  11  12
ENDBRANCH  10  11
ENDBRANCH   1  10
TORSDOF 8
