REMARK  Name = molecules/RSEPBGGWRJCQGY-RBRWEJTLSA-N.pdb
REMARK                            x       y       z     vdW  Elec       q    Type
REMARK                         _______ _______ _______ _____ _____    ______ ____
ROOT
ATOM      1  C   LIG    1       -0.056  -1.554  -0.651  0.00  0.00    +0.015 C 
ATOM      2  C   LIG    1        0.256  -0.157  -0.202  0.00  0.00    +0.008 C 
ATOM      3  C   LIG    1       -0.044  -0.041   1.254  0.00  0.00    +0.011 C 
ATOM      4  C   LIG    1       -1.490  -0.171   1.571  0.00  0.00    +0.009 C 
ATOM      5  C   LIG    1       -2.418   0.573   0.671  0.00  0.00    +0.023 C 
ATOM      6  C   LIG    1       -3.814   0.266   0.916  0.00  0.00    -0.041 A 
ATOM      7  C   LIG    1       -4.235  -0.054   2.178  0.00  0.00    +0.008 A 
ATOM      8  C   LIG    1       -5.558  -0.354   2.453  0.00  0.00    +0.046 A 
ATOM      9  C   LIG    1       -6.488  -0.332   1.421  0.00  0.00    +0.117 A 
ATOM     10  C   LIG    1       -6.073  -0.013   0.159  0.00  0.00    +0.049 A 
ATOM     11  C   LIG    1       -4.741   0.286  -0.097  0.00  0.00    -0.040 A 
ATOM     12  C   LIG    1       -4.379   0.622  -1.506  0.00  0.00    +0.036 C 
ATOM     13  C   LIG    1       -3.001   1.278  -1.577  0.00  0.00    +0.009 C 
ATOM     14  C   LIG    1       -2.045   0.424  -0.814  0.00  0.00    +0.000 C 
ATOM     15  C   LIG    1        1.602   0.330  -0.609  0.00  0.00    +0.183 C 
ATOM     16  C   LIG    1        1.429   0.974  -1.962  0.00  0.00    +0.045 C 
ATOM     17  C   LIG    1       -0.050   0.873  -2.286  0.00  0.00    +0.008 C 
ATOM     18  C   LIG    1       -0.640   0.871  -0.909  0.00  0.00    +0.002 C 
ENDROOT
BRANCH   9  19
ATOM     19  O   LIG    1       -7.815  -0.634   1.699  0.00  0.00    -0.507 OA
ATOM     20  H   LIG    1       -8.104  -0.866   2.627  0.00  0.00    +0.292 HD
ENDBRANCH   9  19
BRANCH  15  21
ATOM     21  O   LIG    1        2.616  -0.619  -0.555  0.00  0.00    -0.461 OA
BRANCH  21  22
ATOM     22  C   LIG    1        3.741  -0.488   0.248  0.00  0.00    +0.307 C 
ATOM     23  O   LIG    1        3.773   0.571   0.933  0.00  0.00    -0.251 OA
BRANCH  22  24
ATOM     24  C   LIG    1        4.826  -1.474   0.324  0.00  0.00    +0.120 C 
BRANCH  24  25
ATOM     25  C   LIG    1        6.035  -1.103  -0.480  0.00  0.00    +0.011 C 
BRANCH  25  26
ATOM     26  C   LIG    1        6.652   0.206  -0.047  0.00  0.00    -0.003 C 
ATOM     27  C   LIG    1        7.085   0.140   1.397  0.00  0.00    +0.004 C 
ENDBRANCH  25  26
ENDBRANCH  24  25
ENDBRANCH  22  24
ENDBRANCH  21  22
ENDBRANCH  15  21
TORSDOF 6
