REMARK  Name = molecules/RSKQGBFMNPDPLR-MRXNPFEDSA-N.pdb
REMARK                            x       y       z     vdW  Elec       q    Type
REMARK                         _______ _______ _______ _____ _____    ______ ____
ROOT
ATOM      1  C   LIG    1       -0.689  -0.881  -0.010  0.00  0.00    +0.086 C 
ENDROOT
BRANCH   1   2
ATOM      2  N   LIG    1        0.610  -0.533  -0.483  0.00  0.00    -0.299 NA
ATOM      3  C   LIG    1        1.563  -1.540  -0.169  0.00  0.00    +0.103 C 
ATOM      4  C   LIG    1        2.965  -1.232  -0.576  0.00  0.00    +0.120 C 
ATOM      5  N   LIG    1        3.350   0.137  -0.244  0.00  0.00    -0.327 N 
ATOM      6  C   LIG    1        2.378   1.025   0.290  0.00  0.00    +0.120 C 
ATOM      7  C   LIG    1        0.972   0.805  -0.213  0.00  0.00    +0.103 C 
BRANCH   5   8
ATOM      8  C   LIG    1        4.697   0.492  -0.481  0.00  0.00    +0.030 A 
ATOM      9  C   LIG    1        5.156   1.711  -0.066  0.00  0.00    +0.026 A 
ATOM     10  C   LIG    1        6.465   2.150  -0.265  0.00  0.00    +0.040 A 
ATOM     11  C   LIG    1        7.325   1.293  -0.916  0.00  0.00    +0.124 A 
ATOM     12  F   LIG    1        8.605   1.689  -1.127  0.00  0.00    -0.205 F 
ATOM     13  C   LIG    1        6.880   0.056  -1.343  0.00  0.00    +0.040 A 
ATOM     14  C   LIG    1        5.585  -0.343  -1.130  0.00  0.00    +0.026 A 
ENDBRANCH   5   8
ENDBRANCH   1   2
BRANCH   1  15
ATOM     15  C   LIG    1       -0.839  -0.920   1.474  0.00  0.00    +0.037 C 
BRANCH  15  16
ATOM     16  C   LIG    1       -2.291  -1.305   1.775  0.00  0.00    +0.071 C 
ATOM     17  C   LIG    1       -2.457  -1.364   3.288  0.00  0.00    +0.028 C 
BRANCH  16  18
ATOM     18  N   LIG    1       -3.173  -0.318   1.203  0.00  0.00    -0.309 N 
ATOM     19  H   LIG    1       -3.085   0.680   1.458  0.00  0.00    +0.149 HD
ATOM     20  C   LIG    1       -4.171  -0.716   0.287  0.00  0.00    +0.246 C 
ATOM     21  O   LIG    1       -4.274  -1.948  -0.020  0.00  0.00    -0.270 OA
BRANCH  20  22
ATOM     22  C   LIG    1       -5.100   0.205  -0.335  0.00  0.00    +0.055 A 
ATOM     23  C   LIG    1       -5.012   1.565  -0.212  0.00  0.00    +0.123 A 
ATOM     24  N   LIG    1       -5.889   2.384  -0.803  0.00  0.00    -0.263 NA
ATOM     25  C   LIG    1       -6.889   1.894  -1.539  0.00  0.00    +0.111 A 
ATOM     26  C   LIG    1       -7.038   0.516  -1.707  0.00  0.00    +0.020 A 
ATOM     27  C   LIG    1       -6.135  -0.304  -1.098  0.00  0.00    +0.016 A 
ENDBRANCH  20  22
ENDBRANCH  16  18
ENDBRANCH  15  16
ENDBRANCH   1  15
TORSDOF 6
