REMARK  Name = molecules/RSOZZQTUMVBTMR-XGUNBQNXSA-N.pdb
REMARK                            x       y       z     vdW  Elec       q    Type
REMARK                         _______ _______ _______ _____ _____    ______ ____
ROOT
ATOM      1  C   LIG    1       -2.130  -0.088   0.467  0.00  0.00    +0.164 C 
ATOM      2  C   LIG    1       -2.972   0.313   1.605  0.00  0.00    +0.171 C 
ATOM      3  O   LIG    1       -3.049  -0.234   2.671  0.00  0.00    -0.294 OA
ATOM      4  C   LIG    1       -3.802   1.531   1.379  0.00  0.00    +0.116 C 
ATOM      5  C   LIG    1       -3.117   2.547   0.517  0.00  0.00    +0.092 C 
ATOM      6  C   LIG    1       -2.693   3.687   1.458  0.00  0.00    +0.046 C 
ATOM      7  O   LIG    1       -2.138   2.119  -0.286  0.00  0.00    -0.356 OA
ATOM      8  C   LIG    1       -1.346  -1.357   0.661  0.00  0.00    +0.039 C 
ATOM      9  C   LIG    1       -0.555  -1.401   1.915  0.00  0.00    +0.017 C 
ATOM     10  C   LIG    1       -2.407  -2.455   0.772  0.00  0.00    +0.124 C 
ATOM     11  C   LIG    1       -1.797  -3.827   0.693  0.00  0.00    +0.032 C 
ATOM     12  C   LIG    1       -1.052  -4.056  -0.578  0.00  0.00    +0.009 C 
ATOM     13  C   LIG    1        0.010  -2.987  -0.716  0.00  0.00    -0.028 C 
ATOM     14  C   LIG    1        1.095  -3.339   0.237  0.00  0.00    +0.011 C 
ATOM     15  C   LIG    1        0.564  -3.152  -2.119  0.00  0.00    +0.011 C 
ATOM     16  C   LIG    1       -0.583  -1.623  -0.612  0.00  0.00    +0.051 C 
ATOM     17  C   LIG    1        0.266  -0.509  -1.098  0.00  0.00    +0.224 C 
ATOM     18  C   LIG    1       -0.550   0.757  -1.214  0.00  0.00    +0.252 C 
ATOM     19  C   LIG    1       -1.313   1.091   0.079  0.00  0.00    +0.144 C 
ATOM     20  C   LIG    1       -0.367   1.595   1.127  0.00  0.00    +0.049 C 
ENDROOT
BRANCH   1  21
ATOM     21  O   LIG    1       -3.038  -0.297  -0.605  0.00  0.00    -0.377 OA
ATOM     22  H   LIG    1       -3.184   0.517  -1.121  0.00  0.00    +0.211 HD
ENDBRANCH   1  21
BRANCH   5  23
ATOM     23  C   LIG    1       -4.192   3.143  -0.351  0.00  0.00    -0.000 C 
ATOM     24  C   LIG    1       -5.236   3.767   0.147  0.00  0.00    +0.007 C 
ENDBRANCH   5  23
BRANCH  10  25
ATOM     25  O   LIG    1       -3.378  -2.378  -0.195  0.00  0.00    -0.391 OA
ATOM     26  H   LIG    1       -3.130  -2.716  -1.080  0.00  0.00    +0.210 HD
ENDBRANCH  10  25
BRANCH  17  27
ATOM     27  O   LIG    1        1.492  -0.293  -0.456  0.00  0.00    -0.457 OA
BRANCH  27  28
ATOM     28  C   LIG    1        2.715  -0.296  -1.139  0.00  0.00    +0.309 C 
ATOM     29  O   LIG    1        2.648  -0.508  -2.386  0.00  0.00    -0.251 OA
BRANCH  28  30
ATOM     30  C   LIG    1        4.029  -0.071  -0.496  0.00  0.00    +0.136 C 
BRANCH  30  31
ATOM     31  C   LIG    1        3.961   0.089   0.984  0.00  0.00    +0.095 C 
BRANCH  31  32
ATOM     32  N   LIG    1        5.245   0.307   1.573  0.00  0.00    -0.308 NA
ATOM     33  C   LIG    1        6.196  -0.738   1.257  0.00  0.00    +0.104 C 
ATOM     34  C   LIG    1        5.830   1.584   1.250  0.00  0.00    +0.104 C 
ENDBRANCH  31  32
ENDBRANCH  30  31
ENDBRANCH  28  30
ENDBRANCH  27  28
ENDBRANCH  17  27
BRANCH  18  35
ATOM     35  O   LIG    1        0.216   1.848  -1.647  0.00  0.00    -0.455 OA
BRANCH  35  36
ATOM     36  C   LIG    1       -0.029   2.503  -2.845  0.00  0.00    +0.304 C 
ATOM     37  C   LIG    1        0.760   3.657  -3.334  0.00  0.00    +0.136 C 
ATOM     38  O   LIG    1       -1.001   2.051  -3.535  0.00  0.00    -0.251 OA
ENDBRANCH  35  36
ENDBRANCH  18  35
TORSDOF 10
