REMARK  Name = molecules/RSWOJTICKMKTER-KBEDJVHFSA-N.pdb
REMARK                            x       y       z     vdW  Elec       q    Type
REMARK                         _______ _______ _______ _____ _____    ______ ____
ROOT
ATOM      1  C   LIG    1        2.734  -1.643   0.069  0.00  0.00    +0.168 C 
ENDROOT
BRANCH   1   2
ATOM      2  N   LIG    1        1.383  -1.180   0.275  0.00  0.00    -0.227 N 
ATOM      3  N   LIG    1        0.466  -1.928   0.910  0.00  0.00    -0.175 NA
ATOM      4  C   LIG    1       -0.691  -1.272   0.966  0.00  0.00    +0.208 C 
ATOM      5  N   LIG    1       -0.514  -0.073   0.351  0.00  0.00    -0.261 N 
ATOM      6  C   LIG    1        0.746  -0.054  -0.052  0.00  0.00    +0.222 C 
BRANCH   5   7
ATOM      7  C   LIG    1       -1.576   0.899   0.218  0.00  0.00    +0.267 C 
ATOM      8  C   LIG    1       -1.635   1.848   1.397  0.00  0.00    +0.074 C 
BRANCH   7   9
ATOM      9  O   LIG    1       -2.811   0.220   0.154  0.00  0.00    -0.428 OA
BRANCH   9  10
ATOM     10  C   LIG    1       -3.691   0.272  -0.891  0.00  0.00    +0.410 C 
ATOM     11  N   LIG    1       -4.929  -0.474  -0.858  0.00  0.00    -0.224 N 
ATOM     12  C   LIG    1       -5.200  -1.289   0.299  0.00  0.00    +0.143 C 
ATOM     13  O   LIG    1       -3.423   0.971  -1.887  0.00  0.00    -0.226 OA
BRANCH  11  14
ATOM     14  C   LIG    1       -5.817  -0.402  -1.936  0.00  0.00    +0.136 A 
ATOM     15  C   LIG    1       -7.125  -0.070  -1.783  0.00  0.00    +0.030 A 
ATOM     16  C   LIG    1       -7.985   0.006  -2.884  0.00  0.00    +0.012 A 
ATOM     17  C   LIG    1       -7.488  -0.260  -4.132  0.00  0.00    +0.020 A 
ATOM     18  C   LIG    1       -6.164  -0.593  -4.268  0.00  0.00    +0.113 A 
ATOM     19  N   LIG    1       -5.357  -0.660  -3.198  0.00  0.00    -0.239 NA
BRANCH  15  20
ATOM     20  C   LIG    1       -7.692   0.208  -0.460  0.00  0.00    +0.271 C 
BRANCH  20  21
ATOM     21  O   LIG    1       -9.082   0.545  -0.584  0.00  0.00    -0.459 OA
BRANCH  21  22
ATOM     22  C   LIG    1       -9.772   0.835   0.585  0.00  0.00    +0.321 C 
ATOM     23  O   LIG    1       -9.143   0.790   1.681  0.00  0.00    -0.249 OA
BRANCH  22  24
ATOM     24  C   LIG    1      -11.224   1.191   0.549  0.00  0.00    +0.202 C 
BRANCH  24  25
ATOM     25  N   LIG    1      -11.722   1.442   1.880  0.00  0.00    -0.310 NA
ATOM     26  C   LIG    1      -11.741   0.228   2.663  0.00  0.00    +0.101 C 
ATOM     27  H   LIG    1      -11.109   2.139   2.345  0.00  0.00    +0.122 HD
ENDBRANCH  24  25
ENDBRANCH  22  24
ENDBRANCH  21  22
ENDBRANCH  20  21
ENDBRANCH  15  20
ENDBRANCH  11  14
ENDBRANCH   9  10
ENDBRANCH   7   9
ENDBRANCH   5   7
ENDBRANCH   1   2
BRANCH   1  28
ATOM     28  C   LIG    1        3.668  -1.275   1.188  0.00  0.00    +0.119 C 
BRANCH  28  33
ATOM     29  C   LIG    1        3.868   2.984   1.758  0.00  0.00    +0.041 A 
ATOM     30  C   LIG    1        3.309   2.164   2.713  0.00  0.00    +0.124 A 
ATOM     31  F   LIG    1        2.830   2.756   3.845  0.00  0.00    -0.205 F 
ATOM     32  C   LIG    1        3.259   0.823   2.491  0.00  0.00    +0.047 A 
ATOM     33  C   LIG    1        3.742   0.188   1.339  0.00  0.00    +0.024 A 
ATOM     34  C   LIG    1        4.294   1.034   0.402  0.00  0.00    +0.130 A 
ATOM     35  F   LIG    1        4.785   0.592  -0.776  0.00  0.00    -0.205 F 
ATOM     36  C   LIG    1        4.359   2.406   0.603  0.00  0.00    +0.041 A 
ENDBRANCH  28  33
BRANCH  28  37
ATOM     37  C   LIG    1        4.938  -2.029   1.210  0.00  0.00    +0.079 C 
ATOM     38  C   LIG    1        4.587  -3.515   1.164  0.00  0.00    +0.018 C 
BRANCH  37  39
ATOM     39  C   LIG    1        5.956  -1.775   0.197  0.00  0.00    +0.085 A 
ATOM     40  N   LIG    1        7.068  -1.088   0.351  0.00  0.00    -0.244 NA
ATOM     41  C   LIG    1        7.896  -0.939  -0.631  0.00  0.00    +0.078 A 
ATOM     42  C   LIG    1        7.566  -1.525  -1.831  0.00  0.00    +0.075 A 
ATOM     43  S   LIG    1        6.065  -2.254  -1.441  0.00  0.00    -0.080 S 
BRANCH  41  44
ATOM     44  C   LIG    1        9.157  -0.166  -0.483  0.00  0.00    +0.001 A 
ATOM     45  C   LIG    1        9.508   0.417   0.710  0.00  0.00    +0.011 A 
ATOM     46  C   LIG    1       10.663   1.140   0.876  0.00  0.00    +0.019 A 
ATOM     47  C   LIG    1       11.527   1.312  -0.165  0.00  0.00    +0.052 A 
ATOM     48  C   LIG    1       11.190   0.730  -1.384  0.00  0.00    +0.019 A 
ATOM     49  C   LIG    1       10.018   0.000  -1.536  0.00  0.00    +0.011 A 
BRANCH  47  50
ATOM     50  C   LIG    1       12.737   2.064   0.004  0.00  0.00    +0.099 C 
ATOM     51  N   LIG    1       13.710   2.669   0.147  0.00  0.00    -0.191 NA
ENDBRANCH  47  50
ENDBRANCH  41  44
ENDBRANCH  37  39
ENDBRANCH  28  37
BRANCH  28  52
ATOM     52  O   LIG    1        2.996  -1.741   2.366  0.00  0.00    -0.382 OA
ATOM     53  H   LIG    1        3.662  -1.655   3.091  0.00  0.00    +0.211 HD
ENDBRANCH  28  52
ENDBRANCH   1  28
TORSDOF 17
