REMARK  Name = molecules/RTGDFNSFWBGLEC-SYZQJQIISA-N.pdb
REMARK                            x       y       z     vdW  Elec       q    Type
REMARK                         _______ _______ _______ _____ _____    ______ ____
ROOT
ATOM      1  C   LIG    1       -1.602   1.076   1.373  0.00  0.00    +0.069 C 
ENDROOT
BRANCH   1   5
ATOM      2  C   LIG    1       -4.619  -2.516  -0.233  0.00  0.00    +0.048 C 
ATOM      3  C   LIG    1       -4.419  -1.127   0.272  0.00  0.00    -0.001 A 
ATOM      4  C   LIG    1       -3.143  -0.672   0.581  0.00  0.00    +0.130 A 
ATOM      5  C   LIG    1       -2.906   0.595   1.047  0.00  0.00    +0.040 A 
ATOM      6  C   LIG    1       -4.014   1.399   1.196  0.00  0.00    +0.138 A 
ATOM      7  C   LIG    1       -5.288   0.975   0.898  0.00  0.00    +0.107 A 
ATOM      8  C   LIG    1       -6.599   1.611   0.956  0.00  0.00    +0.343 C 
ATOM      9  O   LIG    1       -6.813   2.776   1.333  0.00  0.00    -0.245 OA
ATOM     10  O   LIG    1       -7.551   0.706   0.524  0.00  0.00    -0.456 OA
ATOM     11  C   LIG    1       -6.978  -0.516   0.179  0.00  0.00    +0.269 C 
ATOM     12  C   LIG    1       -5.492  -0.299   0.432  0.00  0.00    +0.014 A 
BRANCH   6  13
ATOM     13  O   LIG    1       -3.845   2.689   1.663  0.00  0.00    -0.506 OA
ATOM     14  H   LIG    1       -4.561   3.362   1.811  0.00  0.00    +0.292 HD
ENDBRANCH   6  13
BRANCH   4  15
ATOM     15  O   LIG    1       -2.091  -1.557   0.408  0.00  0.00    -0.494 OA
ATOM     16  C   LIG    1       -1.402  -1.735  -0.777  0.00  0.00    +0.277 C 
ENDBRANCH   4  15
ENDBRANCH   1   5
BRANCH   1  17
ATOM     17  C   LIG    1       -0.645   1.610   0.466  0.00  0.00    -0.023 C 
ATOM     18  C   LIG    1       -0.723   1.926  -0.783  0.00  0.00    -0.076 C 
ATOM     19  C   LIG    1       -2.040   1.766  -1.454  0.00  0.00    +0.039 C 
BRANCH  18  20
ATOM     20  C   LIG    1        0.439   2.482  -1.571  0.00  0.00    +0.041 C 
BRANCH  20  21
ATOM     21  C   LIG    1        1.713   2.624  -0.861  0.00  0.00    +0.125 C 
BRANCH  21  22
ATOM     22  C   LIG    1        2.341   1.368  -0.379  0.00  0.00    +0.307 C 
ATOM     23  O   LIG    1        3.451   1.523   0.234  0.00  0.00    -0.251 OA
BRANCH  22  24
ATOM     24  O   LIG    1        1.882   0.124  -0.516  0.00  0.00    -0.463 OA
BRANCH  24  25
ATOM     25  C   LIG    1        2.281  -1.135  -0.173  0.00  0.00    +0.247 C 
BRANCH  25  26
ATOM     26  C   LIG    1        3.587  -1.587  -0.762  0.00  0.00    +0.125 C 
BRANCH  26  27
ATOM     27  N   LIG    1        4.662  -0.755  -0.227  0.00  0.00    -0.295 NA
ATOM     28  C   LIG    1        4.826  -1.185   1.155  0.00  0.00    +0.112 C 
ATOM     29  C   LIG    1        6.229  -1.191   1.624  0.00  0.00    +0.175 C 
ATOM     30  O   LIG    1        7.029  -0.270   0.937  0.00  0.00    -0.377 OA
ATOM     31  C   LIG    1        7.164  -0.806  -0.338  0.00  0.00    +0.175 C 
ATOM     32  C   LIG    1        5.865  -0.915  -0.998  0.00  0.00    +0.112 C 
ENDBRANCH  26  27
ENDBRANCH  25  26
ENDBRANCH  24  25
ENDBRANCH  22  24
ENDBRANCH  21  22
ENDBRANCH  20  21
ENDBRANCH  18  20
ENDBRANCH   1  17
TORSDOF 11
