REMARK  Name = molecules/RTXOFQZKPXMALH-GHXIOONMSA-N.pdb
REMARK                            x       y       z     vdW  Elec       q    Type
REMARK                         _______ _______ _______ _____ _____    ______ ____
ROOT
ATOM      1  N   LIG    1        0.773  -0.531   0.221  0.00  0.00    -0.296 N 
ATOM      2  C   LIG    1        1.947  -1.119   0.727  0.00  0.00    +0.268 C 
ATOM      3  O   LIG    1        1.950  -2.401   0.629  0.00  0.00    -0.268 OA
ATOM      4  H   LIG    1        0.637   0.491   0.237  0.00  0.00    +0.150 HD
ENDROOT
BRANCH   1  10
ATOM      5  CA  LIG    1       -3.119   0.462  -1.428  0.00  0.00    +0.126 C 
ATOM      6  C   LIG    1       -3.672   1.103  -0.449  0.00  0.00    -0.010 C 
ATOM      7  C   LIG    1       -3.230   1.168   0.942  0.00  0.00    +0.108 C 
ATOM      8  S   LIG    1       -1.805   0.222   1.419  0.00  0.00    -0.131 S 
ATOM      9  C   LIG    1       -1.668  -0.988   0.085  0.00  0.00    +0.169 C 
ATOM     10  CA  LIG    1       -0.311  -1.331  -0.351  0.00  0.00    +0.191 C 
ATOM     11  C   LIG    1       -0.727  -0.788  -1.641  0.00  0.00    +0.244 C 
ATOM     12  O   LIG    1       -0.131  -0.788  -2.782  0.00  0.00    -0.273 OA
ATOM     13  N   LIG    1       -1.918  -0.325  -1.145  0.00  0.00    -0.249 N 
BRANCH   5  14
ATOM     14  C   LIG    1       -3.601   0.446  -2.801  0.00  0.00    +0.352 C 
ATOM     15  O   LIG    1       -2.968  -0.226  -3.698  0.00  0.00    -0.244 OA
BRANCH  14  16
ATOM     16  OXT LIG    1       -4.697   1.097  -3.248  0.00  0.00    -0.476 OA
ATOM     17  HXT LIG    1       -4.687   1.874  -3.926  0.00  0.00    +0.295 HD
ENDBRANCH  14  16
ENDBRANCH   5  14
BRANCH   6  18
ATOM     18  C   LIG    1       -4.892   1.892  -0.703  0.00  0.00    -0.001 C 
ATOM     19  C   LIG    1       -5.455   2.546   0.306  0.00  0.00    +0.009 C 
ENDBRANCH   6  18
ENDBRANCH   1  10
BRANCH   2  20
ATOM     20  C   LIG    1        3.077  -0.461   1.310  0.00  0.00    +0.190 C 
ATOM     21  N   LIG    1        3.090   0.819   1.416  0.00  0.00    -0.080 NA
BRANCH  20  22
ATOM     22  C   LIG    1        4.274  -1.228   1.813  0.00  0.00    +0.107 A 
ATOM     23  N   LIG    1        5.286  -0.594   2.338  0.00  0.00    -0.223 NA
ATOM     24  C   LIG    1        6.330  -1.246   2.778  0.00  0.00    +0.156 A 
ATOM     25  S   LIG    1        5.922  -2.867   2.459  0.00  0.00    -0.060 S 
ATOM     26  C   LIG    1        4.363  -2.589   1.748  0.00  0.00    +0.078 A 
BRANCH  24  27
ATOM     27  N   LIG    1        7.535  -0.704   3.388  0.00  0.00    -0.338 N 
ATOM     28  H   LIG    1        7.664  -0.630   4.400  0.00  0.00    +0.144 HD
ATOM     29  H   LIG    1        8.266  -0.393   2.718  0.00  0.00    +0.144 HD
ENDBRANCH  24  27
ENDBRANCH  20  22
BRANCH  21  30
ATOM     30  O   LIG    1        2.155   1.708   1.046  0.00  0.00    -0.409 OA
ATOM     31  H   LIG    1        2.305   2.401   0.315  0.00  0.00    +0.328 HD
ENDBRANCH  21  30
ENDBRANCH   2  20
TORSDOF 8
