REMARK  Name = molecules/RTZKZFJDLAIYFH-UHFFFAOYSA-N.pdb
REMARK                            x       y       z     vdW  Elec       q    Type
REMARK                         _______ _______ _______ _____ _____    ______ ____
ROOT
ATOM      1  O   LIG    1        0.041   0.229   0.212  0.00  0.00    -0.380 OA
ENDROOT
BRANCH   1   2
ATOM      2  C   LIG    1       -1.157  -0.302  -0.251  0.00  0.00    +0.156 C 
ATOM      3  C   LIG    1       -2.355   0.350   0.359  0.00  0.00    +0.034 C 
ENDBRANCH   1   2
BRANCH   1   4
ATOM      4  C   LIG    1        1.148  -0.363  -0.341  0.00  0.00    +0.156 C 
ATOM      5  C   LIG    1        2.372   0.330   0.269  0.00  0.00    +0.034 C 
ENDBRANCH   1   4
TORSDOF 2
