REMARK  Name = molecules/RUDATBOHQWOJDD-BSWAIDMHSA-N.pdb
REMARK                            x       y       z     vdW  Elec       q    Type
REMARK                         _______ _______ _______ _____ _____    ______ ____
ROOT
ATOM      1  C   LIG    1        1.890   1.406   0.479  0.00  0.00    +0.012 C 
ATOM      2  C   LIG    1        1.405   0.070  -0.033  0.00  0.00    -0.026 C 
ATOM      3  C   LIG    1        0.389  -0.542   0.958  0.00  0.00    +0.001 C 
ATOM      4  C   LIG    1        1.163  -0.474   2.197  0.00  0.00    +0.005 C 
ATOM      5  C   LIG    1        2.553  -0.924   1.709  0.00  0.00    +0.004 C 
ATOM      6  C   LIG    1       -0.868   0.184   0.788  0.00  0.00    +0.025 C 
ATOM      7  C   LIG    1       -1.809   0.111   1.961  0.00  0.00    +0.118 C 
ATOM      8  C   LIG    1       -3.159   0.667   1.606  0.00  0.00    +0.035 C 
ATOM      9  C   LIG    1       -3.234   1.086   0.165  0.00  0.00    +0.000 C 
ATOM     10  C   LIG    1       -4.611   1.637  -0.104  0.00  0.00    +0.035 C 
ATOM     11  C   LIG    1       -5.674   0.634  -0.263  0.00  0.00    +0.115 C 
ATOM     12  C   LIG    1       -5.283  -0.733  -0.661  0.00  0.00    +0.032 C 
ATOM     13  C   LIG    1       -3.889  -1.148  -0.478  0.00  0.00    +0.010 C 
ATOM     14  C   LIG    1       -2.858  -0.046  -0.751  0.00  0.00    -0.026 C 
ATOM     15  C   LIG    1       -3.086   0.356  -2.191  0.00  0.00    +0.012 C 
ATOM     16  C   LIG    1       -1.485  -0.503  -0.447  0.00  0.00    +0.001 C 
ATOM     17  C   LIG    1       -0.517  -0.495  -1.574  0.00  0.00    +0.005 C 
ATOM     18  C   LIG    1        2.450  -0.956   0.200  0.00  0.00    -0.002 C 
ATOM     19  C   LIG    1        0.781   0.175  -1.339  0.00  0.00    +0.007 C 
ENDROOT
BRANCH   7  20
ATOM     20  O   LIG    1       -1.869  -1.155   2.532  0.00  0.00    -0.391 OA
ATOM     21  H   LIG    1       -1.931  -1.088   3.535  0.00  0.00    +0.210 HD
ENDBRANCH   7  20
BRANCH  11  22
ATOM     22  O   LIG    1       -6.434   0.615   0.934  0.00  0.00    -0.392 OA
ATOM     23  H   LIG    1       -6.917   1.499   1.007  0.00  0.00    +0.210 HD
ENDBRANCH  11  22
BRANCH  18  24
ATOM     24  C   LIG    1        3.681  -0.931  -0.566  0.00  0.00    -0.010 C 
ATOM     25  C   LIG    1        4.542  -2.150  -0.189  0.00  0.00    +0.008 C 
BRANCH  24  26
ATOM     26  C   LIG    1        4.569   0.250  -0.508  0.00  0.00    +0.014 C 
BRANCH  26  27
ATOM     27  C   LIG    1        5.772  -0.060  -1.419  0.00  0.00    +0.121 C 
BRANCH  27  28
ATOM     28  C   LIG    1        6.717   1.112  -1.401  0.00  0.00    +0.305 C 
ATOM     29  O   LIG    1        7.770   1.098  -2.065  0.00  0.00    -0.251 OA
BRANCH  28  30
ATOM     30  O   LIG    1        6.439   2.249  -0.639  0.00  0.00    -0.481 OA
ATOM     31  H   LIG    1        5.521   2.696  -0.745  0.00  0.00    +0.295 HD
ENDBRANCH  28  30
ENDBRANCH  27  28
ENDBRANCH  26  27
ENDBRANCH  24  26
ENDBRANCH  18  24
TORSDOF 7
