REMARK  Name = molecules/RUDATBOHQWOJDD-UZVSRGJWSA-N.pdb
REMARK                            x       y       z     vdW  Elec       q    Type
REMARK                         _______ _______ _______ _____ _____    ______ ____
ROOT
ATOM      1  C   LIG    1        1.288   1.418  -1.209  0.00  0.00    +0.012 C 
ATOM      2  C   LIG    1        1.318   0.037  -0.662  0.00  0.00    -0.026 C 
ATOM      3  C   LIG    1        0.574  -0.052   0.683  0.00  0.00    +0.001 C 
ATOM      4  C   LIG    1        1.432   0.754   1.558  0.00  0.00    +0.005 C 
ATOM      5  C   LIG    1        2.841   0.255   1.144  0.00  0.00    +0.004 C 
ATOM      6  C   LIG    1       -0.831   0.423   0.506  0.00  0.00    +0.025 C 
ATOM      7  C   LIG    1       -1.542   0.557   1.811  0.00  0.00    +0.118 C 
ATOM      8  C   LIG    1       -2.904   1.167   1.522  0.00  0.00    +0.035 C 
ATOM      9  C   LIG    1       -3.469   0.750   0.216  0.00  0.00    +0.000 C 
ATOM     10  C   LIG    1       -4.963   0.846   0.267  0.00  0.00    +0.035 C 
ATOM     11  C   LIG    1       -5.646  -0.337   0.842  0.00  0.00    +0.115 C 
ATOM     12  C   LIG    1       -4.745  -1.422   1.329  0.00  0.00    +0.032 C 
ATOM     13  C   LIG    1       -3.608  -1.753   0.432  0.00  0.00    +0.010 C 
ATOM     14  C   LIG    1       -2.995  -0.589  -0.282  0.00  0.00    -0.026 C 
ATOM     15  C   LIG    1       -3.499  -0.665  -1.735  0.00  0.00    +0.012 C 
ATOM     16  C   LIG    1       -1.525  -0.713  -0.262  0.00  0.00    +0.001 C 
ATOM     17  C   LIG    1       -0.883  -0.741  -1.617  0.00  0.00    +0.005 C 
ATOM     18  C   LIG    1        2.680  -0.427  -0.181  0.00  0.00    -0.002 C 
ATOM     19  C   LIG    1        0.613  -0.919  -1.561  0.00  0.00    +0.007 C 
ENDROOT
BRANCH   7  20
ATOM     20  O   LIG    1       -0.841   1.427   2.646  0.00  0.00    -0.391 OA
ATOM     21  H   LIG    1       -1.008   2.362   2.355  0.00  0.00    +0.210 HD
ENDBRANCH   7  20
BRANCH  11  22
ATOM     22  O   LIG    1       -6.476   0.044   1.913  0.00  0.00    -0.392 OA
ATOM     23  H   LIG    1       -5.910   0.203   2.708  0.00  0.00    +0.210 HD
ENDBRANCH  11  22
BRANCH  18  24
ATOM     24  C   LIG    1        3.791  -0.168  -1.101  0.00  0.00    -0.010 C 
ATOM     25  C   LIG    1        3.556  -0.861  -2.470  0.00  0.00    +0.008 C 
BRANCH  24  26
ATOM     26  C   LIG    1        5.125  -0.628  -0.635  0.00  0.00    +0.014 C 
BRANCH  26  27
ATOM     27  C   LIG    1        5.771  -0.069   0.554  0.00  0.00    +0.121 C 
BRANCH  27  28
ATOM     28  C   LIG    1        6.075   1.386   0.472  0.00  0.00    +0.305 C 
ATOM     29  O   LIG    1        5.797   2.071  -0.539  0.00  0.00    -0.251 OA
BRANCH  28  30
ATOM     30  O   LIG    1        6.686   2.006   1.544  0.00  0.00    -0.481 OA
ATOM     31  H   LIG    1        7.688   2.161   1.610  0.00  0.00    +0.295 HD
ENDBRANCH  28  30
ENDBRANCH  27  28
ENDBRANCH  26  27
ENDBRANCH  24  26
ENDBRANCH  18  24
TORSDOF 7
