REMARK  Name = molecules/RUOKEQAAGRXIBM-GFCCVEGCSA-N.pdb
REMARK                            x       y       z     vdW  Elec       q    Type
REMARK                         _______ _______ _______ _____ _____    ______ ____
ROOT
ATOM      1  C   LIG    1        0.674   0.622  -0.340  0.00  0.00    +0.085 C 
ATOM      2  C   LIG    1        0.789   0.420   1.142  0.00  0.00    +0.028 C 
ATOM      3  C   LIG    1       -0.264  -0.662   1.361  0.00  0.00    +0.037 C 
ATOM      4  C   LIG    1       -1.371  -0.085   0.527  0.00  0.00    -0.043 A 
ATOM      5  C   LIG    1       -2.749  -0.166   0.593  0.00  0.00    +0.004 A 
ATOM      6  C   LIG    1       -3.558   0.470  -0.314  0.00  0.00    +0.000 A 
ATOM      7  C   LIG    1       -3.004   1.225  -1.348  0.00  0.00    +0.000 A 
ATOM      8  C   LIG    1       -1.620   1.294  -1.405  0.00  0.00    +0.005 A 
ATOM      9  C   LIG    1       -0.809   0.660  -0.493  0.00  0.00    -0.027 A 
ENDROOT
BRANCH   1  10
ATOM     10  N   LIG    1        1.253  -0.345  -1.180  0.00  0.00    -0.299 NA
ATOM     11  H   LIG    1        0.686  -1.215  -1.309  0.00  0.00    +0.123 HD
BRANCH  10  12
ATOM     12  C   LIG    1        2.638  -0.526  -1.207  0.00  0.00    +0.171 C 
BRANCH  12  13
ATOM     13  C   LIG    1        3.211  -1.160  -0.038  0.00  0.00    -0.090 C 
ATOM     14  C   LIG    1        3.712  -1.694   0.921  0.00  0.00    +0.005 C 
ENDBRANCH  12  13
ENDBRANCH  10  12
ENDBRANCH   1  10
TORSDOF 3
