REMARK  Name = molecules/RUPOLIZWSDDWNJ-UHFFFAOYSA-N.pdb
REMARK                            x       y       z     vdW  Elec       q    Type
REMARK                         _______ _______ _______ _____ _____    ______ ____
ROOT
ATOM      1  N   LIG    1       -2.950  -0.302  -0.104  0.00  0.00    -0.284 N 
ATOM      2  C   LIG    1       -3.846   0.017   0.980  0.00  0.00    +0.139 A 
ATOM      3  N   LIG    1       -3.628  -0.604   2.186  0.00  0.00    -0.239 NA
ATOM      4  C   LIG    1       -4.391  -0.399   3.261  0.00  0.00    +0.113 A 
ATOM      5  C   LIG    1       -5.462   0.473   3.202  0.00  0.00    +0.021 A 
ATOM      6  C   LIG    1       -5.721   1.121   2.014  0.00  0.00    +0.020 A 
ATOM      7  C   LIG    1       -4.898   0.869   0.938  0.00  0.00    +0.053 A 
ATOM      8  S   LIG    1       -5.239   1.728  -0.604  0.00  0.00    -0.084 S 
ATOM      9  C   LIG    1       -4.031   1.166  -1.755  0.00  0.00    +0.034 C 
ATOM     10  C   LIG    1       -4.099   1.658  -3.022  0.00  0.00    +0.013 C 
ATOM     11  C   LIG    1       -3.206   1.274  -3.999  0.00  0.00    -0.017 C 
ATOM     12  C   LIG    1       -2.233   0.370  -3.663  0.00  0.00    +0.047 C 
ATOM     13  C   LIG    1       -2.153  -0.137  -2.389  0.00  0.00    +0.006 C 
ATOM     14  C   LIG    1       -3.070   0.265  -1.399  0.00  0.00    +0.046 C 
ENDROOT
BRANCH   1  15
ATOM     15  C   LIG    1       -1.866  -1.221   0.152  0.00  0.00    +0.114 C 
BRANCH  15  16
ATOM     16  C   LIG    1       -0.514  -0.634   0.320  0.00  0.00    +0.035 C 
BRANCH  16  17
ATOM     17  C   LIG    1        0.516  -1.730   0.574  0.00  0.00    +0.086 C 
BRANCH  17  18
ATOM     18  N   LIG    1        1.850  -1.258   0.706  0.00  0.00    -0.300 NA
ATOM     19  C   LIG    1        2.080  -0.497   1.883  0.00  0.00    +0.100 C 
ATOM     20  C   LIG    1        3.519  -0.070   2.049  0.00  0.00    +0.100 C 
ATOM     21  N   LIG    1        4.150   0.187   0.779  0.00  0.00    -0.298 NA
ATOM     22  C   LIG    1        3.265   0.430  -0.279  0.00  0.00    +0.100 C 
ATOM     23  C   LIG    1        2.405  -0.793  -0.512  0.00  0.00    +0.100 C 
BRANCH  21  24
ATOM     24  C   LIG    1        5.442   0.715   0.808  0.00  0.00    +0.112 C 
BRANCH  24  25
ATOM     25  C   LIG    1        6.340   0.071  -0.207  0.00  0.00    +0.171 C 
BRANCH  25  26
ATOM     26  O   LIG    1        5.914   0.231  -1.514  0.00  0.00    -0.394 OA
ATOM     27  H   LIG    1        6.458  -0.260  -2.155  0.00  0.00    +0.209 HD
ENDBRANCH  25  26
ENDBRANCH  24  25
ENDBRANCH  21  24
ENDBRANCH  17  18
ENDBRANCH  16  17
ENDBRANCH  15  16
ENDBRANCH   1  15
TORSDOF 7
