REMARK  Name = molecules/RUQATQQNXCPTLL-PQMJGINDSA-N.pdb
REMARK                            x       y       z     vdW  Elec       q    Type
REMARK                         _______ _______ _______ _____ _____    ______ ____
ROOT
ATOM      1  C   LIG    1        1.655  -0.119  -1.021  0.00  0.00    +0.192 C 
ATOM      2  C   LIG    1        1.692   0.556   0.315  0.00  0.00    +0.208 C 
ATOM      3  C   LIG    1        3.182   0.730   0.654  0.00  0.00    +0.193 C 
ATOM      4  C   LIG    1        3.684   1.879  -0.184  0.00  0.00    +0.208 C 
ATOM      5  C   LIG    1        3.132   1.839  -1.573  0.00  0.00    +0.185 C 
ATOM      6  C   LIG    1        2.670   0.449  -1.952  0.00  0.00    +0.179 C 
ENDROOT
BRANCH   6   7
ATOM      7  O   LIG    1        3.809  -0.348  -2.036  0.00  0.00    -0.386 OA
ATOM      8  H   LIG    1        4.164  -0.291  -2.959  0.00  0.00    +0.210 HD
ENDBRANCH   6   7
BRANCH   5   9
ATOM      9  O   LIG    1        2.129   2.790  -1.777  0.00  0.00    -0.386 OA
ATOM     10  H   LIG    1        2.329   3.550  -1.186  0.00  0.00    +0.210 HD
ENDBRANCH   5   9
BRANCH   4  11
ATOM     11  N   LIG    1        5.122   1.857  -0.146  0.00  0.00    -0.268 N 
ATOM     12  H   LIG    1        5.641   1.749  -1.036  0.00  0.00    +0.258 HD
BRANCH  11  13
ATOM     13  C   LIG    1        5.820   1.980   1.077  0.00  0.00    +0.377 C 
ATOM     14  N   LIG    1        6.914   1.131   1.336  0.00  0.00    -0.289 N 
ATOM     15  H   LIG    1        6.896   0.422   2.092  0.00  0.00    +0.255 HD
ATOM     16  H   LIG    1        7.770   1.214   0.756  0.00  0.00    +0.255 HD
BRANCH  13  17
ATOM     17  N   LIG    1        5.480   2.849   1.958  0.00  0.00    -0.130 NA
ATOM     18  H   LIG    1        4.678   3.468   1.763  0.00  0.00    +0.306 HD
ENDBRANCH  13  17
ENDBRANCH  11  13
ENDBRANCH   4  11
BRANCH   3  19
ATOM     19  O   LIG    1        3.398   0.899   2.001  0.00  0.00    -0.385 OA
ATOM     20  H   LIG    1        4.004   0.213   2.406  0.00  0.00    +0.210 HD
ENDBRANCH   3  19
BRANCH   2  21
ATOM     21  N   LIG    1        1.159  -0.275   1.369  0.00  0.00    -0.268 N 
ATOM     22  H   LIG    1        0.818  -1.230   1.145  0.00  0.00    +0.258 HD
BRANCH  21  23
ATOM     23  C   LIG    1        1.081   0.160   2.713  0.00  0.00    +0.377 C 
ATOM     24  N   LIG    1        1.088  -0.817   3.754  0.00  0.00    -0.289 N 
ATOM     25  H   LIG    1        1.824  -0.759   4.473  0.00  0.00    +0.255 HD
ATOM     26  H   LIG    1        0.372  -1.573   3.796  0.00  0.00    +0.255 HD
BRANCH  23  27
ATOM     27  N   LIG    1        1.001   1.401   3.068  0.00  0.00    -0.130 NA
ATOM     28  H   LIG    1        0.991   2.156   2.355  0.00  0.00    +0.306 HD
ENDBRANCH  23  27
ENDBRANCH  21  23
ENDBRANCH   2  21
BRANCH   1  29
ATOM     29  O   LIG    1        0.408  -0.098  -1.647  0.00  0.00    -0.339 OA
BRANCH  29  35
ATOM     30  C   LIG    1       -1.592  -1.448  -1.300  0.00  0.00    +0.185 C 
ATOM     31  C   LIG    1       -1.849  -2.857  -1.750  0.00  0.00    +0.077 C 
ATOM     32  C   LIG    1       -1.110  -2.857  -3.087  0.00  0.00    +0.126 C 
ATOM     33  O   LIG    1       -0.368  -1.680  -3.146  0.00  0.00    -0.345 OA
ATOM     34  C   LIG    1       -0.312  -4.090  -3.322  0.00  0.00    +0.038 C 
ATOM     35  C   LIG    1       -0.138  -1.333  -1.796  0.00  0.00    +0.280 C 
BRANCH  31  36
ATOM     36  C   LIG    1       -3.279  -3.223  -1.945  0.00  0.00    +0.164 C 
BRANCH  36  37
ATOM     37  O   LIG    1       -4.049  -3.112  -0.817  0.00  0.00    -0.395 OA
ATOM     38  H   LIG    1       -4.367  -3.971  -0.464  0.00  0.00    +0.209 HD
ENDBRANCH  36  37
ENDBRANCH  31  36
BRANCH  30  39
ATOM     39  O   LIG    1       -1.687  -1.184   0.034  0.00  0.00    -0.341 OA
BRANCH  39  40
ATOM     40  C   LIG    1       -2.492  -0.089   0.324  0.00  0.00    +0.271 C 
ATOM     41  C   LIG    1       -3.548  -0.358   1.328  0.00  0.00    +0.141 C 
ATOM     42  C   LIG    1       -4.342   0.903   1.651  0.00  0.00    +0.167 C 
ATOM     43  C   LIG    1       -3.662   2.113   1.046  0.00  0.00    +0.176 C 
ATOM     44  C   LIG    1       -2.201   2.005   1.335  0.00  0.00    +0.178 C 
ATOM     45  O   LIG    1       -1.646   0.960   0.671  0.00  0.00    -0.341 OA
BRANCH  41  46
ATOM     46  N   LIG    1       -2.996  -0.930   2.533  0.00  0.00    -0.310 NA
ATOM     47  H   LIG    1       -3.579  -0.823   3.377  0.00  0.00    +0.122 HD
ATOM     48  C   LIG    1       -2.365  -2.196   2.378  0.00  0.00    +0.101 C 
ENDBRANCH  41  46
BRANCH  43  49
ATOM     49  O   LIG    1       -4.151   3.285   1.602  0.00  0.00    -0.387 OA
ATOM     50  H   LIG    1       -4.994   3.512   1.101  0.00  0.00    +0.210 HD
ENDBRANCH  43  49
BRANCH  42  51
ATOM     51  O   LIG    1       -5.658   0.833   1.218  0.00  0.00    -0.387 OA
ATOM     52  H   LIG    1       -5.721   0.711   0.231  0.00  0.00    +0.210 HD
ENDBRANCH  42  51
BRANCH  44  53
ATOM     53  C   LIG    1       -1.568   3.284   0.756  0.00  0.00    +0.190 C 
BRANCH  53  54
ATOM     54  O   LIG    1       -1.851   3.359  -0.619  0.00  0.00    -0.392 OA
ATOM     55  H   LIG    1       -1.061   3.149  -1.159  0.00  0.00    +0.210 HD
ENDBRANCH  53  54
ENDBRANCH  44  53
ENDBRANCH  39  40
ENDBRANCH  30  39
ENDBRANCH  29  35
ENDBRANCH   1  29
TORSDOF 20
