REMARK  Name = molecules/RVGLGHVJXCETIO-UHFFFAOYSA-N.pdb
REMARK                            x       y       z     vdW  Elec       q    Type
REMARK                         _______ _______ _______ _____ _____    ______ ____
ROOT
ATOM      1  C   LIG    1        1.234  -0.011   0.027  0.00  0.00    +0.055 A 
ATOM      2  C   LIG    1        1.307   0.515   1.295  0.00  0.00    +0.043 A 
ATOM      3  C   LIG    1        0.133   0.811   1.991  0.00  0.00    +0.055 A 
ATOM      4  C   LIG    1       -1.126   0.601   1.466  0.00  0.00    +0.043 A 
ATOM      5  C   LIG    1       -1.220   0.077   0.199  0.00  0.00    +0.055 A 
ATOM      6  C   LIG    1       -0.027  -0.217  -0.490  0.00  0.00    +0.083 A 
ATOM      7 CL   LIG    1       -0.148  -0.889  -2.112  0.00  0.00    -0.080 Cl
ENDROOT
BRANCH   1   8
ATOM      8  N   LIG    1        2.382  -0.347  -0.765  0.00  0.00    -0.275 N 
ATOM      9  C   LIG    1        3.719  -0.218  -0.434  0.00  0.00    +0.325 C 
ATOM     10  O   LIG    1        4.091   0.238   0.671  0.00  0.00    -0.263 OA
ATOM     11  H   LIG    1        2.182  -0.749  -1.737  0.00  0.00    +0.155 HD
BRANCH   9  12
ATOM     12  C   LIG    1        4.737  -0.633  -1.417  0.00  0.00    +0.393 C 
ATOM     13  O   LIG    1        4.415  -1.093  -2.531  0.00  0.00    -0.240 OA
BRANCH  12  14
ATOM     14  O   LIG    1        6.063  -0.502  -1.082  0.00  0.00    -0.474 OA
ATOM     15  H   LIG    1        6.428  -0.327  -0.167  0.00  0.00    +0.296 HD
ENDBRANCH  12  14
ENDBRANCH   9  12
ENDBRANCH   1   8
BRANCH   5  16
ATOM     16  N   LIG    1       -2.455  -0.175  -0.428  0.00  0.00    -0.275 N 
ATOM     17  C   LIG    1       -3.705   0.059   0.118  0.00  0.00    +0.325 C 
ATOM     18  O   LIG    1       -3.946   0.537   1.267  0.00  0.00    -0.263 OA
ATOM     19  H   LIG    1       -2.401  -0.583  -1.411  0.00  0.00    +0.155 HD
BRANCH  17  20
ATOM     20  C   LIG    1       -4.901  -0.270  -0.695  0.00  0.00    +0.393 C 
ATOM     21  O   LIG    1       -4.707  -0.744  -1.833  0.00  0.00    -0.240 OA
BRANCH  20  22
ATOM     22  O   LIG    1       -6.141  -0.050  -0.184  0.00  0.00    -0.474 OA
ATOM     23  H   LIG    1       -6.713  -0.757   0.274  0.00  0.00    +0.296 HD
ENDBRANCH  20  22
ENDBRANCH  17  20
ENDBRANCH   5  16
BRANCH   3  24
ATOM     24  C   LIG    1        0.226   1.361   3.319  0.00  0.00    +0.099 C 
ATOM     25  N   LIG    1        0.295   1.816   4.381  0.00  0.00    -0.191 NA
ENDBRANCH   3  24
TORSDOF 7
