REMARK  Name = molecules/RVOLLAQWKVFTGE-UHFFFAOYSA-N.pdb
REMARK                            x       y       z     vdW  Elec       q    Type
REMARK                         _______ _______ _______ _____ _____    ______ ____
ROOT
ATOM      1  C   LIG    1       -0.670   0.127   0.465  0.00  0.00    +0.132 C 
ATOM      2  C   LIG    1       -0.976   1.279   1.178  0.00  0.00    +0.095 C 
ATOM      3  C   LIG    1       -2.285   1.714   1.115  0.00  0.00    +0.001 C 
ATOM      4  C   LIG    1       -3.205   1.006   0.369  0.00  0.00    +0.071 C 
ATOM      5  N   LIG    1       -2.898  -0.107  -0.316  0.00  0.00    -0.313 N 
ATOM      6  C   LIG    1       -3.876  -0.850  -1.102  0.00  0.00    +0.134 C 
ATOM      7  C   LIG    1       -1.628  -0.552  -0.271  0.00  0.00    +0.117 C 
ENDROOT
BRANCH   1   8
ATOM      8  O   LIG    1        0.653  -0.307   0.532  0.00  0.00    -0.414 OA
BRANCH   8  12
ATOM      9  C   LIG    1        3.891   0.202  -1.337  0.00  0.00    +0.135 C 
ATOM     10  N   LIG    1        2.941  -0.277  -0.363  0.00  0.00    -0.273 N 
ATOM     11  C   LIG    1        3.343  -1.201   0.682  0.00  0.00    +0.135 C 
ATOM     12  C   LIG    1        1.586   0.133  -0.386  0.00  0.00    +0.407 C 
ATOM     13  O   LIG    1        1.218   0.929  -1.279  0.00  0.00    -0.226 OA
ENDBRANCH   8  12
ENDBRANCH   1   8
TORSDOF 2
