REMARK  Name = molecules/RWHUEXWOYVBUCI-ITQXDASVSA-N.pdb
REMARK                            x       y       z     vdW  Elec       q    Type
REMARK                         _______ _______ _______ _____ _____    ______ ____
ROOT
ATOM      1  C   LIG    1        7.245 -12.147   0.000  0.00  0.00    +0.000 C 
ENDROOT
TORSDOF 0
REMARK  Name = molecules/RWHUEXWOYVBUCI-ITQXDASVSA-N.pdb
REMARK                            x       y       z     vdW  Elec       q    Type
REMARK                         _______ _______ _______ _____ _____    ______ ____
ROOT
ATOM      1  N   LIG    1        7.245 -10.647   0.000  0.00  0.00    -0.180 NA
ATOM      2  C   LIG    1        8.447 -10.107   0.000  0.00  0.00    +0.180 C 
ENDROOT
TORSDOF 0
REMARK  Name = molecules/RWHUEXWOYVBUCI-ITQXDASVSA-N.pdb
REMARK                            x       y       z     vdW  Elec       q    Type
REMARK                         _______ _______ _______ _____ _____    ______ ____
ROOT
ATOM      1  C   LIG    1        9.294  -7.500   0.000  0.00  0.00    +0.019 A 
ATOM      2  C   LIG    1        9.451  -8.992   0.000  0.00  0.00    +0.143 A 
ATOM      3  C   LIG    1       10.918  -9.304   0.000  0.00  0.00    +0.087 A 
ATOM      4  C   LIG    1       11.382 -10.730   0.000  0.00  0.00    +0.061 C 
ATOM      5  N   LIG    1       11.668  -8.005   0.000  0.00  0.00    -0.256 NA
ATOM      6  C   LIG    1       10.665  -6.890   0.000  0.00  0.00    +0.118 A 
ENDROOT
BRANCH   2   7
ATOM      7  O   LIG    1        8.196  -8.598   0.000  0.00  0.00    -0.505 OA
ATOM      8  H   LIG    1        7.582  -8.192   0.000  0.00  0.00    +0.292 HD
ENDBRANCH   2   7
BRANCH   1   9
ATOM      9  C   LIG    1        7.995  -6.750   0.000  0.00  0.00    +0.052 C 
BRANCH   9  10
ATOM     10  C   LIG    1        6.696  -6.000   0.000  0.00  0.00    +0.090 C 
ATOM     11  C   LIG    1        5.397  -5.250   0.000  0.00  0.00    +0.013 C 
BRANCH  10  12
ATOM     12  N   LIG    1        5.946  -7.299   0.000  0.00  0.00    -0.229 NA
ATOM     13  C   LIG    1        6.696  -8.598   0.000  0.00  0.00    +0.113 C 
ENDBRANCH  10  12
ENDBRANCH   9  10
ENDBRANCH   1   9
TORSDOF 4
REMARK  Name = molecules/RWHUEXWOYVBUCI-ITQXDASVSA-N.pdb
REMARK                            x       y       z     vdW  Elec       q    Type
REMARK                         _______ _______ _______ _____ _____    ______ ____
ROOT
ATOM      1  N   LIG    1        4.098  -0.402   0.000  0.00  0.00    -0.282 NA
ATOM      2  C   LIG    1        4.848   0.897   0.000  0.00  0.00    +0.087 C 
ENDROOT
BRANCH   1   3
ATOM      3  C   LIG    1        4.848  -1.701   0.000  0.00  0.00    +0.140 C 
BRANCH   3   5
ATOM      4  N   LIG    1        5.397  -3.750   0.000  0.00  0.00    -0.134 NA
ATOM      5  CA  LIG    1        4.098  -3.000   0.000  0.00  0.00    +0.163 C 
BRANCH   5   6
ATOM      6  C   LIG    1        3.348  -4.299   0.000  0.00  0.00    +0.153 C 
BRANCH   6   7
ATOM      7  O   LIG    1        2.598  -5.598   0.000  0.00  0.00    -0.381 OA
ATOM      8  H   LIG    1        1.336  -5.278   0.000  0.00  0.00    +0.210 HD
ENDBRANCH   6   7
ENDBRANCH   5   6
ENDBRANCH   3   5
ENDBRANCH   1   3
BRANCH   2   9
ATOM      9  C   LIG    1        6.147   0.147   0.000  0.00  0.00    +0.072 C 
BRANCH   9  10
ATOM     10  C   LIG    1        7.446  -0.603   0.000  0.00  0.00    -0.038 A 
ATOM     11  C   LIG    1        7.446  -2.103   0.000  0.00  0.00    +0.008 A 
ATOM     12  C   LIG    1        8.745  -2.853   0.000  0.00  0.00    +0.051 A 
ATOM     13  C   LIG    1       10.044  -2.103   0.000  0.00  0.00    +0.179 A 
ATOM     14  O   LIG    1       11.343  -2.853   0.000  0.00  0.00    -0.288 OA
ATOM     15  C   LIG    1       10.044  -0.603   0.000  0.00  0.00    +0.051 A 
ATOM     16  C   LIG    1        8.745   0.147   0.000  0.00  0.00    +0.008 A 
ENDBRANCH   9  10
ENDBRANCH   2   9
TORSDOF 6
REMARK  Name = molecules/RWHUEXWOYVBUCI-ITQXDASVSA-N.pdb
REMARK                            x       y       z     vdW  Elec       q    Type
REMARK                         _______ _______ _______ _____ _____    ______ ____
ROOT
ATOM      1  C   LIG    1        3.951   7.245   0.000  0.00  0.00    +0.272 C 
ATOM      2  O   LIG    1        3.261   6.847   0.000  0.00  0.00    -0.268 OA
ATOM      3  O   LIG    1        2.449   7.249   0.000  0.00  0.00    -0.269 OA
ATOM      4  C   LIG    1        1.902   8.196   0.000  0.00  0.00    +0.253 C 
ATOM      5  C   LIG    1        2.652   9.495   0.000  0.00  0.00    +0.136 C 
ATOM      6  N   LIG    1        3.951   8.745   0.000  0.00  0.00    -0.220 NA
ENDROOT
BRANCH   4   7
ATOM      7  N   LIG    1        0.402   8.196   0.000  0.00  0.00    -0.285 N 
ATOM      8  C   LIG    1       -0.480   9.410   0.000  0.00  0.00    +0.166 C 
ATOM      9  C   LIG    1       -1.906   8.946   0.000  0.00  0.00    +0.025 C 
ATOM     10  C   LIG    1       -1.906   7.446   0.000  0.00  0.00    +0.025 C 
ATOM     11  C   LIG    1       -0.480   6.983   0.000  0.00  0.00    +0.109 C 
BRANCH   8  12
ATOM     12  C   LIG    1       -1.090  10.780   0.000  0.00  0.00    +0.234 C 
ATOM     13  N   LIG    1       -2.582  10.937   0.000  0.00  0.00    -0.305 N 
ATOM     14  H   LIG    1       -2.564  10.294   0.000  0.00  0.00    +0.149 HD
ATOM     15  O   LIG    1       -0.208  11.993   0.000  0.00  0.00    -0.274 OA
BRANCH  13  16
ATOM     16  C   LIG    1       -3.192  12.307   0.000  0.00  0.00    +0.203 C 
BRANCH  16  17
ATOM     17  C   LIG    1       -3.802  13.677   0.000  0.00  0.00    +0.269 C 
ATOM     18  N   LIG    1       -2.920  14.891   0.000  0.00  0.00    -0.087 NA
ATOM     19  O   LIG    1       -5.294  13.834   0.000  0.00  0.00    -0.271 OA
ENDBRANCH  16  17
ENDBRANCH  13  16
ENDBRANCH   8  12
ENDBRANCH   4   7
BRANCH   1  20
ATOM     20  C   LIG    1        5.250   6.495   0.000  0.00  0.00    +0.210 C 
BRANCH  20  23
ATOM     21  C   LIG    1        3.000   5.196   0.000  0.00  0.00    +0.254 C 
ATOM     22  O   LIG    1        2.557   5.963   0.000  0.00  0.00    -0.272 OA
ATOM     23  N   LIG    1        4.500   5.196   0.000  0.00  0.00    -0.199 NA
BRANCH  21  25
ATOM     24  N   LIG    1        3.549   3.147   0.000  0.00  0.00    -0.129 NA
ATOM     25  C   LIG    1        2.250   3.897   0.000  0.00  0.00    +0.188 C 
BRANCH  25  26
ATOM     26  C   LIG    1        1.500   2.598   0.000  0.00  0.00    +0.058 C 
BRANCH  26  27
ATOM     27  C   LIG    1        0.750   1.299   0.000  0.00  0.00    -0.041 A 
ATOM     28  C   LIG    1       -0.750   1.299   0.000  0.00  0.00    +0.004 A 
ATOM     29  C   LIG    1       -1.500   0.000   0.000  0.00  0.00    +0.008 A 
ATOM     30  C   LIG    1       -0.750  -1.299   0.000  0.00  0.00    -0.022 A 
ATOM     31  C   LIG    1        0.750  -1.299   0.000  0.00  0.00    -0.039 A 
ATOM     32  C   LIG    1        1.500  -2.598   0.000  0.00  0.00    +0.048 C 
ATOM     33  C   LIG    1        0.750  -3.897   0.000  0.00  0.00    +0.013 C 
ATOM     34  C   LIG    1       -0.750  -3.897   0.000  0.00  0.00    -0.017 C 
ATOM     35  C   LIG    1       -1.500  -2.598   0.000  0.00  0.00    +0.004 C 
ATOM     36  C   LIG    1        1.500   0.000   0.000  0.00  0.00    +0.008 A 
ENDBRANCH  26  27
ENDBRANCH  25  26
ENDBRANCH  21  25
ENDBRANCH  20  23
BRANCH  20  37
ATOM     37  C   LIG    1        6.549   5.745   0.000  0.00  0.00    +0.002 C 
ATOM     38  C   LIG    1        7.848   4.995   0.000  0.00  0.00    -0.032 C 
ATOM     39  C   LIG    1        9.147   4.245   0.000  0.00  0.00    +0.035 C 
ENDBRANCH  20  37
ENDBRANCH   1  20
BRANCH   5  40
ATOM     40  C   LIG    1        3.402  10.794   0.000  0.00  0.00    +0.054 C 
BRANCH  40  41
ATOM     41  C   LIG    1        4.152  12.093   0.000  0.00  0.00    +0.046 C 
BRANCH  41  42
ATOM     42  C   LIG    1        4.902  13.392   0.000  0.00  0.00    +0.244 C 
BRANCH  42  43
ATOM     43  N   LIG    1        5.652  14.691   0.000  0.00  0.00    -0.102 NA
BRANCH  43  44
ATOM     44  C   LIG    1        7.152  14.691   0.000  0.00  0.00    +0.534 C 
ATOM     45  N   LIG    1        7.902  15.990   0.000  0.00  0.00    +0.135 NA
ATOM     46  N   LIG    1        7.902  13.392   0.000  0.00  0.00    +0.135 NA
ENDBRANCH  43  44
ENDBRANCH  42  43
ENDBRANCH  41  42
ENDBRANCH  40  41
ENDBRANCH   5  40
TORSDOF 15
REMARK  Name = molecules/RWHUEXWOYVBUCI-ITQXDASVSA-N.pdb
REMARK                            x       y       z     vdW  Elec       q    Type
REMARK                         _______ _______ _______ _____ _____    ______ ____
ROOT
ATOM      1  O   HOH    1        5.864 -12.733   0.000  0.00  0.00    -0.410 OA
ATOM      2  H   HOH    0        6.434 -13.250   0.000  0.00  0.00    +0.205 HD
ATOM      3  H   HOH    0        6.275 -12.238   0.000  0.00  0.00    +0.205 HD
ENDROOT
TORSDOF 0
REMARK  Name = molecules/RWHUEXWOYVBUCI-ITQXDASVSA-N.pdb
REMARK                            x       y       z     vdW  Elec       q    Type
REMARK                         _______ _______ _______ _____ _____    ______ ____
ROOT
ATOM      1  C   LIG    1        8.544 -12.897   0.000  0.00  0.00    -0.005 C 
ATOM      2  C   LIG    1        8.911 -11.533   0.000  0.00  0.00    +0.005 C 
ENDROOT
TORSDOF 0
REMARK  Name = molecules/RWHUEXWOYVBUCI-ITQXDASVSA-N.pdb
REMARK                            x       y       z     vdW  Elec       q    Type
REMARK                         _______ _______ _______ _____ _____    ______ ____
ROOT
ATOM      1  C   LIG    1        9.971 -14.861   0.000  0.00  0.00    +0.229 C 
ATOM      2  O   LIG    1       11.184 -15.742   0.000  0.00  0.00    -0.274 OA
ATOM      3  N   LIG    1        9.971 -13.361   0.000  0.00  0.00    -0.234 NA
ATOM      4  H   LIG    1       11.322 -13.011   0.000  0.00  0.00    +0.173 HD
ENDROOT
BRANCH   1   6
ATOM      5  C   LIG    1        7.663 -14.111   0.000  0.00  0.00    +0.005 C 
ATOM      6  C   LIG    1        8.544 -15.324   0.000  0.00  0.00    +0.101 C 
ENDBRANCH   1   6
TORSDOF 1
REMARK  Name = molecules/RWHUEXWOYVBUCI-ITQXDASVSA-N.pdb
REMARK                            x       y       z     vdW  Elec       q    Type
REMARK                         _______ _______ _______ _____ _____    ______ ____
ROOT
ATOM      1  C   LIG    1        4.446 -12.495   0.000  0.00  0.00    +0.065 A 
ATOM      2  C   LIG    1        2.954 -12.652   0.000  0.00  0.00    +0.136 A 
ATOM      3  N   LIG    1        2.643 -14.119   0.000  0.00  0.00    -0.242 NA
ATOM      4  C   LIG    1        3.942 -14.869   0.000  0.00  0.00    +0.221 A 
ATOM      5  N   LIG    1        5.056 -13.866   0.000  0.00  0.00    -0.239 NA
ENDROOT
BRANCH   1   6
ATOM      6  C   LIG    1        5.196 -11.196   0.000  0.00  0.00    +0.057 C 
ATOM      7  C   LIG    1        5.946  -9.897   0.000  0.00  0.00    +0.002 C 
ENDBRANCH   1   6
TORSDOF 1
REMARK  Name = molecules/RWHUEXWOYVBUCI-ITQXDASVSA-N.pdb
REMARK                            x       y       z     vdW  Elec       q    Type
REMARK                         _______ _______ _______ _____ _____    ______ ____
ROOT
ATOM      1  C   LIG    1       10.378 -11.845   0.000  0.00  0.00    -0.000 C 
ENDROOT
TORSDOF 0
REMARK  Name = molecules/RWHUEXWOYVBUCI-ITQXDASVSA-N.pdb
REMARK                            x       y       z     vdW  Elec       q    Type
REMARK                         _______ _______ _______ _____ _____    ______ ____
ROOT
ATOM      1  O   HOH    1        4.098  -6.000   0.000  0.00  0.00    -0.410 OA
ATOM      2  H   HOH    0        4.446  -7.299   0.000  0.00  0.00    +0.205 HD
ATOM      3  H   HOH    0        4.427  -5.341   0.000  0.00  0.00    +0.205 HD
ENDROOT
TORSDOF 0
REMARK  Name = molecules/RWHUEXWOYVBUCI-ITQXDASVSA-N.pdb
REMARK                            x       y       z     vdW  Elec       q    Type
REMARK                         _______ _______ _______ _____ _____    ______ ____
ROOT
ATOM      1  O   HOH    1        6.348  -1.701   0.000  0.00  0.00    -0.410 OA
ATOM      2  H   HOH    0        6.065  -2.689   0.000  0.00  0.00    +0.205 HD
ATOM      3  H   HOH    0        5.734  -1.295   0.000  0.00  0.00    +0.205 HD
ENDROOT
TORSDOF 0
REMARK  Name = molecules/RWHUEXWOYVBUCI-ITQXDASVSA-N.pdb
REMARK                            x       y       z     vdW  Elec       q    Type
REMARK                         _______ _______ _______ _____ _____    ______ ____
ROOT
ATOM      1  C   LIG    1        3.549   1.647   0.000  0.00  0.00    +0.000 C 
ENDROOT
TORSDOF 0
REMARK  Name = molecules/RWHUEXWOYVBUCI-ITQXDASVSA-N.pdb
REMARK                            x       y       z     vdW  Elec       q    Type
REMARK                         _______ _______ _______ _____ _____    ______ ____
ROOT
ATOM      1  O   HOH    1        2.250   0.897   0.000  0.00  0.00    -0.410 OA
ATOM      2  H   HOH    0        2.989   0.183   0.000  0.00  0.00    +0.205 HD
ATOM      3  H   HOH    0        2.579   1.556   0.000  0.00  0.00    +0.205 HD
ENDROOT
TORSDOF 0
REMARK  Name = molecules/RWHUEXWOYVBUCI-ITQXDASVSA-N.pdb
REMARK                            x       y       z     vdW  Elec       q    Type
REMARK                         _______ _______ _______ _____ _____    ______ ____
ROOT
ATOM      1  C   LIG    1        7.098   3.696   0.000  0.00  0.00    +0.000 C 
ENDROOT
TORSDOF 0
REMARK  Name = molecules/RWHUEXWOYVBUCI-ITQXDASVSA-N.pdb
REMARK                            x       y       z     vdW  Elec       q    Type
REMARK                         _______ _______ _______ _____ _____    ______ ____
ROOT
ATOM      1  H   UNK    1        4.930   3.733   0.000  0.00  0.00    +0.000 HD
ENDROOT
TORSDOF 0
REMARK  Name = molecules/RWHUEXWOYVBUCI-ITQXDASVSA-N.pdb
REMARK                            x       y       z     vdW  Elec       q    Type
REMARK                         _______ _______ _______ _____ _____    ______ ____
ROOT
ATOM      1  H   UNK    1        5.403   3.998   0.000  0.00  0.00    +0.000 HD
ENDROOT
TORSDOF 0
REMARK  Name = molecules/RWHUEXWOYVBUCI-ITQXDASVSA-N.pdb
REMARK                            x       y       z     vdW  Elec       q    Type
REMARK                         _______ _______ _______ _____ _____    ______ ____
ROOT
ATOM      1  H   UNK    1        5.332   9.331   0.000  0.00  0.00    +0.000 HD
ENDROOT
TORSDOF 0
REMARK  Name = molecules/RWHUEXWOYVBUCI-ITQXDASVSA-N.pdb
REMARK                            x       y       z     vdW  Elec       q    Type
REMARK                         _______ _______ _______ _____ _____    ______ ____
ROOT
ATOM      1  H   UNK    1       -3.463   9.723   0.000  0.00  0.00    +0.000 HD
ENDROOT
TORSDOF 0
REMARK  Name = molecules/RWHUEXWOYVBUCI-ITQXDASVSA-N.pdb
REMARK                            x       y       z     vdW  Elec       q    Type
REMARK                         _______ _______ _______ _____ _____    ______ ____
ROOT
ATOM      1  H   UNK    1       -3.530  16.261   0.000  0.00  0.00    +0.000 HD
ENDROOT
TORSDOF 0
REMARK  Name = molecules/RWHUEXWOYVBUCI-ITQXDASVSA-N.pdb
REMARK                            x       y       z     vdW  Elec       q    Type
REMARK                         _______ _______ _______ _____ _____    ______ ____
ROOT
ATOM      1  H   UNK    1       -1.428  14.734   0.000  0.00  0.00    +0.000 HD
ENDROOT
TORSDOF 0
REMARK  Name = molecules/RWHUEXWOYVBUCI-ITQXDASVSA-N.pdb
REMARK                            x       y       z     vdW  Elec       q    Type
REMARK                         _______ _______ _______ _____ _____    ______ ____
ROOT
ATOM      1  H   UNK    1        1.272 -14.729   0.000  0.00  0.00    +0.000 HD
ENDROOT
TORSDOF 0
REMARK  Name = molecules/RWHUEXWOYVBUCI-ITQXDASVSA-N.pdb
REMARK                            x       y       z     vdW  Elec       q    Type
REMARK                         _______ _______ _______ _____ _____    ______ ____
ROOT
ATOM      1  H   UNK    1        4.647  -9.147   0.000  0.00  0.00    +0.000 HD
ENDROOT
TORSDOF 0
REMARK  Name = molecules/RWHUEXWOYVBUCI-ITQXDASVSA-N.pdb
REMARK                            x       y       z     vdW  Elec       q    Type
REMARK                         _______ _______ _______ _____ _____    ______ ____
ROOT
ATOM      1  H   UNK    1       13.160  -7.848   0.000  0.00  0.00    +0.000 HD
ENDROOT
TORSDOF 0
REMARK  Name = molecules/RWHUEXWOYVBUCI-ITQXDASVSA-N.pdb
REMARK                            x       y       z     vdW  Elec       q    Type
REMARK                         _______ _______ _______ _____ _____    ______ ____
ROOT
ATOM      1  H   UNK    1        1.109  -5.781   0.000  0.00  0.00    +0.000 HD
ENDROOT
TORSDOF 0
REMARK  Name = molecules/RWHUEXWOYVBUCI-ITQXDASVSA-N.pdb
REMARK                            x       y       z     vdW  Elec       q    Type
REMARK                         _______ _______ _______ _____ _____    ______ ____
ROOT
ATOM      1  H   UNK    1       11.343  -4.353   0.000  0.00  0.00    +0.000 HD
ENDROOT
TORSDOF 0
REMARK  Name = molecules/RWHUEXWOYVBUCI-ITQXDASVSA-N.pdb
REMARK                            x       y       z     vdW  Elec       q    Type
REMARK                         _______ _______ _______ _____ _____    ______ ____
ROOT
ATOM      1  H   UNK    1        6.512   2.315   0.000  0.00  0.00    +0.000 HD
ENDROOT
TORSDOF 0
REMARK  Name = molecules/RWHUEXWOYVBUCI-ITQXDASVSA-N.pdb
REMARK                            x       y       z     vdW  Elec       q    Type
REMARK                         _______ _______ _______ _____ _____    ______ ____
ROOT
ATOM      1  H   UNK    1        8.296   2.793   0.000  0.00  0.00    +0.000 HD
ENDROOT
TORSDOF 0
REMARK  Name = molecules/RWHUEXWOYVBUCI-ITQXDASVSA-N.pdb
REMARK                            x       y       z     vdW  Elec       q    Type
REMARK                         _______ _______ _______ _____ _____    ______ ____
ROOT
ATOM      1  H   UNK    1        5.799   4.446   0.000  0.00  0.00    +0.000 HD
ENDROOT
TORSDOF 0
REMARK  Name = molecules/RWHUEXWOYVBUCI-ITQXDASVSA-N.pdb
REMARK                            x       y       z     vdW  Elec       q    Type
REMARK                         _______ _______ _______ _____ _____    ______ ____
ROOT
ATOM      1  H   UNK    1        4.902  15.990   0.000  0.00  0.00    +0.000 HD
ENDROOT
TORSDOF 0
REMARK  Name = molecules/RWHUEXWOYVBUCI-ITQXDASVSA-N.pdb
REMARK                            x       y       z     vdW  Elec       q    Type
REMARK                         _______ _______ _______ _____ _____    ______ ____
ROOT
ATOM      1  H   UNK    1        9.402  13.392   0.000  0.00  0.00    +0.000 HD
ENDROOT
TORSDOF 0
REMARK  Name = molecules/RWHUEXWOYVBUCI-ITQXDASVSA-N.pdb
REMARK                            x       y       z     vdW  Elec       q    Type
REMARK                         _______ _______ _______ _____ _____    ______ ____
ROOT
ATOM      1  H   UNK    1        7.152  12.093   0.000  0.00  0.00    +0.000 HD
ENDROOT
TORSDOF 0
REMARK  Name = molecules/RWHUEXWOYVBUCI-ITQXDASVSA-N.pdb
REMARK                            x       y       z     vdW  Elec       q    Type
REMARK                         _______ _______ _______ _____ _____    ______ ____
ROOT
ATOM      1  H   UNK    1        9.402  15.990   0.000  0.00  0.00    +0.000 HD
ENDROOT
TORSDOF 0
