REMARK  Name = molecules/RWIUTHWKQHRQNP-CHCSOGFJSA-N.pdb
REMARK                            x       y       z     vdW  Elec       q    Type
REMARK                         _______ _______ _______ _____ _____    ______ ____
ROOT
ATOM      1  C   LIG    1       -0.868   4.624  -0.048  0.00  0.00    +0.000 C 
ENDROOT
BRANCH   1   2
ATOM      2  C   LIG    1       -0.141   4.176  -1.232  0.00  0.00    +0.000 C 
BRANCH   2   3
ATOM      3  C   LIG    1       -0.034   2.749  -1.577  0.00  0.00    +0.000 C 
BRANCH   3   4
ATOM      4  C   LIG    1        0.552   1.883  -0.509  0.00  0.00    +0.004 C 
BRANCH   4   5
ATOM      5  C   LIG    1        0.525   0.442  -1.057  0.00  0.00    +0.027 C 
BRANCH   5   6
ATOM      6  C   LIG    1        1.058  -0.468  -0.060  0.00  0.00    -0.031 C 
ATOM      7  C   LIG    1        2.087  -1.225  -0.224  0.00  0.00    -0.027 C 
BRANCH   7   8
ATOM      8  C   LIG    1        2.859  -1.238  -1.495  0.00  0.00    +0.053 C 
BRANCH   8   9
ATOM      9  C   LIG    1        2.814  -2.575  -2.075  0.00  0.00    -0.027 C 
ATOM     10  C   LIG    1        3.813  -3.367  -2.337  0.00  0.00    -0.031 C 
BRANCH  10  11
ATOM     11  C   LIG    1        5.197  -2.940  -2.043  0.00  0.00    +0.027 C 
BRANCH  11  12
ATOM     12  C   LIG    1        5.835  -3.898  -1.030  0.00  0.00    +0.004 C 
BRANCH  12  13
ATOM     13  C   LIG    1        7.242  -3.403  -0.771  0.00  0.00    +0.000 C 
BRANCH  13  14
ATOM     14  C   LIG    1        7.968  -4.280   0.220  0.00  0.00    -0.003 C 
ATOM     15  C   LIG    1        9.355  -3.700   0.408  0.00  0.00    +0.004 C 
ENDBRANCH  13  14
ENDBRANCH  12  13
ENDBRANCH  11  12
ENDBRANCH  10  11
ENDBRANCH   8   9
ENDBRANCH   7   8
ENDBRANCH   5   6
ENDBRANCH   4   5
ENDBRANCH   3   4
ENDBRANCH   2   3
ENDBRANCH   1   2
BRANCH   1  16
ATOM     16  C   LIG    1       -2.292   4.281   0.093  0.00  0.00    +0.009 C 
BRANCH  16  17
ATOM     17  C   LIG    1       -2.665   2.850   0.237  0.00  0.00    +0.096 C 
BRANCH  17  20
ATOM     18  N   LIG    1       -4.716   1.473   0.538  0.00  0.00    -0.309 N 
ATOM     19  H   LIG    1       -4.060   0.633   0.552  0.00  0.00    +0.149 HD
ATOM     20  C   LIG    1       -4.153   2.754   0.384  0.00  0.00    +0.213 C 
ATOM     21  O   LIG    1       -4.834   3.778   0.363  0.00  0.00    -0.276 OA
BRANCH  18  22
ATOM     22  C   LIG    1       -6.157   1.242   0.680  0.00  0.00    +0.100 C 
ATOM     23  C   LIG    1       -6.598   0.285  -0.386  0.00  0.00    +0.033 C 
BRANCH  22  24
ATOM     24  C   LIG    1       -6.390   0.682   2.048  0.00  0.00    -0.027 A 
ATOM     25  C   LIG    1       -7.468   1.095   2.786  0.00  0.00    +0.005 A 
ATOM     26  C   LIG    1       -7.727   0.589   4.061  0.00  0.00    +0.000 A 
ATOM     27  C   LIG    1       -6.885  -0.352   4.614  0.00  0.00    +0.000 A 
ATOM     28  C   LIG    1       -5.804  -0.769   3.881  0.00  0.00    +0.000 A 
ATOM     29  C   LIG    1       -5.549  -0.266   2.613  0.00  0.00    +0.005 A 
ENDBRANCH  22  24
ENDBRANCH  18  22
ENDBRANCH  17  20
ENDBRANCH  16  17
ENDBRANCH   1  16
TORSDOF 16
