REMARK  Name = molecules/RWLALWYNXFYRGW-YUMQZZPRSA-N.pdb
REMARK                            x       y       z     vdW  Elec       q    Type
REMARK                         _______ _______ _______ _____ _____    ______ ____
ROOT
ATOM      1  C   LIG    1        0.396   0.649   0.785  0.00  0.00    +0.120 C 
ENDROOT
BRANCH   1   2
ATOM      2  O   LIG    1       -0.203   1.235   1.899  0.00  0.00    -0.391 OA
ATOM      3  H   LIG    1        0.250   2.071   2.144  0.00  0.00    +0.210 HD
ENDBRANCH   1   2
BRANCH   1   4
ATOM      4  C   LIG    1        1.393  -0.351   1.276  0.00  0.00    +0.031 C 
BRANCH   4   5
ATOM      5  C   LIG    1        2.145  -1.035   0.157  0.00  0.00    -0.001 C 
ATOM      6  C   LIG    1        2.913  -0.034  -0.687  0.00  0.00    +0.004 C 
ENDBRANCH   4   5
ENDBRANCH   1   4
BRANCH   1   7
ATOM      7  C   LIG    1       -0.668   0.089  -0.098  0.00  0.00    +0.043 C 
BRANCH   7   8
ATOM      8  C   LIG    1       -1.507  -0.974   0.542  0.00  0.00    +0.005 C 
ATOM      9  C   LIG    1       -2.532  -1.438  -0.471  0.00  0.00    +0.004 C 
ENDBRANCH   7   8
BRANCH   7  10
ATOM     10  C   LIG    1       -1.609   1.255  -0.409  0.00  0.00    +0.161 C 
BRANCH  10  11
ATOM     11  O   LIG    1       -0.865   2.239  -1.047  0.00  0.00    -0.395 OA
ATOM     12  H   LIG    1       -1.336   3.117  -0.910  0.00  0.00    +0.209 HD
ENDBRANCH  10  11
ENDBRANCH   7  10
ENDBRANCH   1   7
TORSDOF 7
