REMARK  Name = molecules/RWRDJVNMSZYMDV-SIUYXFDKSA-L.pdb
REMARK                            x       y       z     vdW  Elec       q    Type
REMARK                         _______ _______ _______ _____ _____    ______ ____
ROOT
ATOM      1 RA   LIG    1       -0.002  -0.671   0.000  0.00  0.00    +0.000 Ra
ATOM      2 CL   LIG    1       -1.890  -0.165   0.000  0.00  0.00    +0.000 Cl
ATOM      3 CL   LIG    1        1.892   0.062   0.000  0.00  0.00    +0.000 Cl
ENDROOT
TORSDOF 0
