REMARK  Name = molecules/RWSXRVCMGQZWBV-WDSKDSINSA-N.pdb
REMARK                            x       y       z     vdW  Elec       q    Type
REMARK                         _______ _______ _______ _____ _____    ______ ____
ROOT
ATOM      1  N   GLN A  1       -0.283   0.074  -0.506  0.00  0.00    -0.303 N 
ATOM      2  CD  GLN A  1        0.866   0.690   0.037  0.00  0.00    +0.214 C 
ATOM      3  OE1 GLN A  1        0.769   1.801   0.674  0.00  0.00    -0.276 OA
ATOM      4  H   GLN A  1       -0.252  -0.807  -1.050  0.00  0.00    +0.149 HD
ENDROOT
BRANCH   1   5
ATOM      5  CA  GLN A  1       -1.553   0.717  -0.270  0.00  0.00    +0.168 C 
BRANCH   5   6
ATOM      6  C   GLN A  1       -2.673  -0.247  -0.542  0.00  0.00    +0.235 C 
ATOM      7  N   GLY A  2       -3.729  -0.359   0.315  0.00  0.00    -0.303 N 
ATOM      8  H   GLY A  2       -4.267  -1.357  -0.453  0.00  0.00    +0.149 HD
ATOM      9  O   GLN A  1       -2.490  -0.905  -1.641  0.00  0.00    -0.274 OA
BRANCH   7  10
ATOM     10  CA  GLY A  2       -4.793  -0.479   1.171  0.00  0.00    +0.224 C 
BRANCH  10  11
ATOM     11  C   GLY A  2       -4.919  -1.845   1.760  0.00  0.00    +0.322 C 
ATOM     12  O   GLY A  2       -4.157  -2.769   1.496  0.00  0.00    -0.249 OA
BRANCH  11  13
ATOM     13  OXT GLY A  2       -5.964  -2.040   2.644  0.00  0.00    -0.480 OA
ATOM     14  HXT GLY A  2       -6.702  -2.670   2.331  0.00  0.00    +0.295 HD
ENDBRANCH  11  13
ENDBRANCH  10  11
ENDBRANCH   7  10
ENDBRANCH   5   6
BRANCH   5  15
ATOM     15  CB  GLN A  1       -1.691   1.888  -1.244  0.00  0.00    +0.097 C 
BRANCH  15  16
ATOM     16  SG  GLN A  1       -1.608   1.360  -2.942  0.00  0.00    -0.176 S 
ATOM     17  HG  GLN A  1       -1.572   2.545  -3.764  0.00  0.00    +0.102 HD
ENDBRANCH  15  16
ENDBRANCH   5  15
ENDBRANCH   1   5
BRANCH   2  18
ATOM     18  CG  GLN A  1        2.183   0.027  -0.138  0.00  0.00    +0.098 C 
BRANCH  18  19
ATOM     19  CB  GLN A  1        3.323   0.998  -0.019  0.00  0.00    +0.039 C 
BRANCH  19  20
ATOM     20  CA  GLN A  1        4.659   0.314  -0.054  0.00  0.00    +0.161 C 
BRANCH  20  21
ATOM     21  N   GLN A  1        4.896  -0.409  -1.271  0.00  0.00    -0.318 NA
ATOM     22  H1  GLN A  1        4.023  -0.716  -1.742  0.00  0.00    +0.119 HD
ATOM     23  H2  GLN A  1        5.490   0.167  -1.884  0.00  0.00    +0.119 HD
ENDBRANCH  20  21
BRANCH  20  24
ATOM     24  C   GLN A  1        4.754  -0.625   1.128  0.00  0.00    +0.322 C 
ATOM     25  OXT GLN A  1        4.496  -0.139   2.250  0.00  0.00    -0.249 OA
BRANCH  24  26
ATOM     26  O   GLN A  1        5.106  -1.923   0.907  0.00  0.00    -0.480 OA
ATOM     27  H   GLN A  1        5.226  -2.563   1.694  0.00  0.00    +0.295 HD
ENDBRANCH  24  26
ENDBRANCH  20  24
ENDBRANCH  19  20
ENDBRANCH  18  19
ENDBRANCH   2  18
TORSDOF 13
