REMARK  Name = molecules/RWWYLEGWBNMMLJ-YSOARWBDSA-N.pdb
REMARK                            x       y       z     vdW  Elec       q    Type
REMARK                         _______ _______ _______ _____ _____    ______ ____
ROOT
ATOM      1  C   LIG    1       -1.667  -1.082  -1.153  0.00  0.00    +0.206 C 
ENDROOT
BRANCH   1   6
ATOM      2  O   LIG    1       -3.702   0.166  -0.597  0.00  0.00    -0.343 OA
ATOM      3  C   LIG    1       -4.904   0.358  -1.323  0.00  0.00    +0.225 C 
ATOM      4  C   LIG    1       -4.298   0.742  -2.647  0.00  0.00    +0.198 C 
ATOM      5  C   LIG    1       -3.291  -0.402  -2.813  0.00  0.00    +0.178 C 
ATOM      6  C   LIG    1       -3.102  -0.830  -1.345  0.00  0.00    +0.178 C 
BRANCH   3   7
ATOM      7  C   LIG    1       -5.804   1.348  -0.817  0.00  0.00    +0.092 A 
ATOM      8  N   LIG    1       -5.945   1.945   0.376  0.00  0.00    -0.228 N 
ATOM      9  N   LIG    1       -5.263   1.806   1.478  0.00  0.00    -0.154 NA
ATOM     10  C   LIG    1       -5.608   2.526   2.582  0.00  0.00    +0.245 A 
ATOM     11  N   LIG    1       -6.634   3.390   2.608  0.00  0.00    -0.217 NA
ATOM     12  C   LIG    1       -7.350   3.542   1.475  0.00  0.00    +0.144 A 
ATOM     13  C   LIG    1       -6.985   2.812   0.383  0.00  0.00    +0.105 A 
ATOM     14  C   LIG    1       -7.549   2.777  -0.878  0.00  0.00    +0.033 A 
ATOM     15  C   LIG    1       -6.828   1.882  -1.613  0.00  0.00    +0.029 A 
BRANCH  12  16
ATOM     16  N   LIG    1       -8.457   4.426   1.462  0.00  0.00    -0.341 N 
ATOM     17  H   LIG    1       -9.425   4.071   1.518  0.00  0.00    +0.144 HD
ATOM     18  H   LIG    1       -8.296   5.447   1.399  0.00  0.00    +0.144 HD
ENDBRANCH  12  16
ENDBRANCH   3   7
BRANCH   4  19
ATOM     19  O   LIG    1       -5.181   0.798  -3.694  0.00  0.00    -0.385 OA
ATOM     20  H   LIG    1       -4.844   1.465  -4.378  0.00  0.00    +0.210 HD
ENDBRANCH   4  19
BRANCH   5  21
ATOM     21  O   LIG    1       -3.865  -1.415  -3.553  0.00  0.00    -0.386 OA
ATOM     22  H   LIG    1       -3.673  -2.339  -3.183  0.00  0.00    +0.210 HD
ENDBRANCH   5  21
BRANCH   3  23
ATOM     23  C   LIG    1       -5.611  -0.921  -1.469  0.00  0.00    +0.107 C 
ATOM     24  N   LIG    1       -6.177  -1.913  -1.586  0.00  0.00    -0.193 NA
ENDBRANCH   3  23
ENDBRANCH   1   6
BRANCH   1  25
ATOM     25  O   LIG    1       -1.252  -1.401   0.129  0.00  0.00    -0.284 OA
BRANCH  25  26
ATOM     26  P   LIG    1        0.392  -1.856   0.099  0.00  0.00    +0.462 P 
ATOM     27  O   LIG    1        0.450  -2.796  -1.153  0.00  0.00    -0.228 OA
BRANCH  26  28
ATOM     28  N   LIG    1        1.526  -0.658  -0.177  0.00  0.00    -0.199 NA
ATOM     29  H   LIG    1        1.703  -0.374  -1.141  0.00  0.00    +0.135 HD
BRANCH  28  30
ATOM     30  C   LIG    1        2.360  -0.159   0.833  0.00  0.00    +0.171 C 
ATOM     31  C   LIG    1        2.730  -1.113   1.928  0.00  0.00    +0.036 C 
BRANCH  30  32
ATOM     32  C   LIG    1        3.634   0.279   0.162  0.00  0.00    +0.325 C 
ATOM     33  O   LIG    1        3.658   0.102  -1.119  0.00  0.00    -0.249 OA
BRANCH  32  34
ATOM     34  O   LIG    1        4.723   0.817   0.739  0.00  0.00    -0.463 OA
BRANCH  34  35
ATOM     35  C   LIG    1        5.833   1.127  -0.116  0.00  0.00    +0.235 C 
BRANCH  35  36
ATOM     36  C   LIG    1        6.933   1.713   0.714  0.00  0.00    +0.026 C 
BRANCH  36  37
ATOM     37  C   LIG    1        8.143   2.047  -0.151  0.00  0.00    +0.003 C 
ATOM     38  C   LIG    1        8.673   0.799  -0.824  0.00  0.00    +0.004 C 
ENDBRANCH  36  37
BRANCH  36  39
ATOM     39  C   LIG    1        6.440   2.942   1.378  0.00  0.00    +0.003 C 
ATOM     40  C   LIG    1        6.005   4.042   0.440  0.00  0.00    +0.004 C 
ENDBRANCH  36  39
ENDBRANCH  35  36
ENDBRANCH  34  35
ENDBRANCH  32  34
ENDBRANCH  30  32
ENDBRANCH  28  30
ENDBRANCH  26  28
BRANCH  26  41
ATOM     41  O   LIG    1        0.653  -2.876   1.451  0.00  0.00    -0.413 OA
BRANCH  41  42
ATOM     42  C   LIG    1        0.401  -4.226   1.302  0.00  0.00    +0.131 A 
ATOM     43  C   LIG    1       -0.843  -4.768   1.568  0.00  0.00    +0.046 A 
ATOM     44  C   LIG    1       -1.103  -6.104   1.420  0.00  0.00    +0.004 A 
ATOM     45  C   LIG    1       -0.104  -6.932   0.998  0.00  0.00    +0.000 A 
ATOM     46  C   LIG    1        1.146  -6.453   0.721  0.00  0.00    +0.004 A 
ATOM     47  C   LIG    1        1.380  -5.095   0.879  0.00  0.00    +0.046 A 
ENDBRANCH  41  42
ENDBRANCH  26  41
ENDBRANCH  25  26
ENDBRANCH   1  25
TORSDOF 18
