REMARK  Name = molecules/RXOIEVSUURELPG-SECBINFHSA-N.pdb
REMARK                            x       y       z     vdW  Elec       q    Type
REMARK                         _______ _______ _______ _____ _____    ______ ____
ROOT
ATOM      1  O   LIG    1       -0.698   2.530  -0.648  0.00  0.00    -0.271 OA
ATOM      2  C   LIG    1       -0.151   1.548  -0.126  0.00  0.00    +0.269 C 
ATOM      3  C   LIG    1       -0.686   0.404   0.659  0.00  0.00    +0.240 C 
ATOM      4  O   LIG    1        0.197  -0.625   0.129  0.00  0.00    -0.320 OA
ATOM      5  C   LIG    1        1.444  -0.016  -0.026  0.00  0.00    +0.277 C 
ATOM      6  N   LIG    1        1.272   1.279  -0.178  0.00  0.00    -0.161 NA
ENDROOT
BRANCH   3   7
ATOM      7  C   LIG    1       -2.092   0.119   0.377  0.00  0.00    -0.010 A 
ATOM      8  C   LIG    1       -2.513  -1.202   0.301  0.00  0.00    +0.006 A 
ATOM      9  C   LIG    1       -3.859  -1.490   0.052  0.00  0.00    +0.000 A 
ATOM     10  C   LIG    1       -4.773  -0.454  -0.118  0.00  0.00    +0.000 A 
ATOM     11  C   LIG    1       -4.320   0.831  -0.035  0.00  0.00    +0.000 A 
ATOM     12  C   LIG    1       -2.995   1.139   0.210  0.00  0.00    +0.006 A 
ENDBRANCH   3   7
BRANCH   5  13
ATOM     13  N   LIG    1        2.728  -0.625  -0.031  0.00  0.00    -0.267 NA
ATOM     14  H   LIG    1        2.846  -1.650  -0.127  0.00  0.00    +0.126 HD
BRANCH  13  15
ATOM     15  C   LIG    1        3.922   0.209   0.106  0.00  0.00    +0.082 C 
ATOM     16  C   LIG    1        5.183  -0.579  -0.071  0.00  0.00    +0.020 C 
ENDBRANCH  13  15
ENDBRANCH   5  13
TORSDOF 3
