REMARK  Name = molecules/RXPRRQLKFXBCSJ-GIVPXCGWSA-N.pdb
REMARK                            x       y       z     vdW  Elec       q    Type
REMARK                         _______ _______ _______ _____ _____    ______ ____
ROOT
ATOM      1  C   LIG    1        0.570   1.439   0.431  0.00  0.00    +0.244 C 
ATOM      2  N   LIG    1        1.026   0.105   0.239  0.00  0.00    -0.305 N 
ATOM      3  C   LIG    1        2.222  -0.454   0.507  0.00  0.00    +0.052 A 
ATOM      4  C   LIG    1        3.399   0.006   1.035  0.00  0.00    +0.026 A 
ATOM      5  C   LIG    1        4.496  -0.831   1.196  0.00  0.00    +0.002 A 
ATOM      6  C   LIG    1        4.422  -2.144   0.827  0.00  0.00    +0.001 A 
ATOM      7  C   LIG    1        3.244  -2.635   0.290  0.00  0.00    +0.010 A 
ATOM      8  C   LIG    1        2.168  -1.784   0.141  0.00  0.00    +0.003 A 
ATOM      9  C   LIG    1        0.910  -2.014  -0.355  0.00  0.00    -0.016 A 
ATOM     10  C   LIG    1        0.209  -3.179  -0.902  0.00  0.00    +0.053 C 
ATOM     11  C   LIG    1       -1.229  -2.938  -1.171  0.00  0.00    +0.090 C 
ATOM     12  N   LIG    1       -1.836  -1.855  -0.474  0.00  0.00    -0.293 NA
ATOM     13  C   LIG    1       -2.091  -2.127   0.923  0.00  0.00    +0.085 C 
ATOM     14  C   LIG    1       -3.066  -1.060   1.381  0.00  0.00    +0.016 C 
ATOM     15  C   LIG    1       -2.279   0.256   1.347  0.00  0.00    +0.010 C 
ATOM     16  C   LIG    1       -1.757   0.558  -0.018  0.00  0.00    -0.003 C 
ATOM     17  C   LIG    1       -1.121  -0.627  -0.695  0.00  0.00    +0.110 C 
ATOM     18  C   LIG    1        0.260  -0.826  -0.270  0.00  0.00    +0.044 A 
ATOM     19  C   LIG    1       -0.828   1.732   0.071  0.00  0.00    +0.079 C 
ENDROOT
BRANCH   1  20
ATOM     20  C   LIG    1        1.454   2.307  -0.432  0.00  0.00    +0.361 C 
ATOM     21  O   LIG    1        1.368   2.143  -1.674  0.00  0.00    -0.245 OA
BRANCH  20  22
ATOM     22  O   LIG    1        2.323   3.241   0.054  0.00  0.00    -0.465 OA
ATOM     23  C   LIG    1        3.129   4.028  -0.818  0.00  0.00    +0.280 C 
ENDBRANCH  20  22
ENDBRANCH   1  20
BRANCH   1  24
ATOM     24  O   LIG    1        0.878   1.838   1.756  0.00  0.00    -0.361 OA
ATOM     25  H   LIG    1        0.124   2.390   2.124  0.00  0.00    +0.213 HD
ENDBRANCH   1  24
BRANCH  16  26
ATOM     26  C   LIG    1       -2.928   0.975  -0.888  0.00  0.00    +0.005 C 
ATOM     27  C   LIG    1       -3.689   2.138  -0.357  0.00  0.00    +0.004 C 
ENDBRANCH  16  26
TORSDOF 4
