REMARK  Name = molecules/RXQCGGRTAILOIN-UHFFFAOYSA-N.pdb
REMARK                            x       y       z     vdW  Elec       q    Type
REMARK                         _______ _______ _______ _____ _____    ______ ____
ROOT
ATOM      1  C   LIG    1       -0.237  -0.117  -1.426  0.00  0.00    +0.056 C 
ENDROOT
BRANCH   1   2
ATOM      2  C   LIG    1        1.068   0.158  -0.812  0.00  0.00    -0.046 A 
ATOM      3  C   LIG    1        1.389   1.407  -0.328  0.00  0.00    +0.004 A 
ATOM      4  C   LIG    1        2.630   1.665   0.254  0.00  0.00    +0.000 A 
ATOM      5  C   LIG    1        3.580   0.671   0.363  0.00  0.00    +0.000 A 
ATOM      6  C   LIG    1        3.264  -0.577  -0.119  0.00  0.00    +0.000 A 
ATOM      7  C   LIG    1        2.026  -0.828  -0.697  0.00  0.00    +0.004 A 
ENDBRANCH   1   2
BRANCH   1   8
ATOM      8  C   LIG    1       -1.292  -0.579  -0.478  0.00  0.00    +0.017 C 
ATOM      9  C   LIG    1       -0.928  -1.902   0.183  0.00  0.00    +0.027 C 
ATOM     10  C   LIG    1       -2.550  -0.875  -1.298  0.00  0.00    +0.027 C 
BRANCH   8  12
ATOM     11  C   LIG    1       -2.062   1.629   0.161  0.00  0.00    +0.101 C 
ATOM     12  N   LIG    1       -1.601   0.339   0.566  0.00  0.00    -0.314 NA
ATOM     13  H   LIG    1       -0.937   0.357   1.350  0.00  0.00    +0.122 HD
ENDBRANCH   8  12
ENDBRANCH   1   8
TORSDOF 3
