REMARK  Name = molecules/RXRGZNYSEHTMHC-BQBZGAKWSA-N.pdb
REMARK                            x       y       z     vdW  Elec       q    Type
REMARK                         _______ _______ _______ _____ _____    ______ ____
ROOT
ATOM      1  O   LIG    1        0.661   2.387   0.684  0.00  0.00    -0.244 OA
ATOM      2  C   LIG    1        1.355   1.383   0.367  0.00  0.00    +0.352 A 
ATOM      3  N   LIG    1        0.820   0.148   0.395  0.00  0.00    -0.270 N 
ATOM      4  C   LIG    1        1.620  -0.875   0.044  0.00  0.00    +0.096 A 
ATOM      5  C   LIG    1        2.937  -0.692  -0.333  0.00  0.00    +0.061 A 
ATOM      6  C   LIG    1        3.459   0.575  -0.354  0.00  0.00    +0.123 A 
ATOM      7  N   LIG    1        2.651   1.592  -0.002  0.00  0.00    -0.178 NA
ENDROOT
BRANCH   3   8
ATOM      8  C   LIG    1       -0.533  -0.003   0.787  0.00  0.00    +0.252 C 
ATOM      9  C   LIG    1       -0.988  -1.425   0.931  0.00  0.00    +0.217 C 
ATOM     10  O   LIG    1       -2.391  -1.242   0.959  0.00  0.00    -0.345 OA
ATOM     11  C   LIG    1       -2.645  -0.014   0.403  0.00  0.00    +0.278 C 
ATOM     12  O   LIG    1       -1.458   0.469  -0.147  0.00  0.00    -0.323 OA
BRANCH  11  13
ATOM     13  C   LIG    1       -3.731  -0.134  -0.649  0.00  0.00    +0.217 C 
BRANCH  13  14
ATOM     14  O   LIG    1       -3.965   1.115  -1.191  0.00  0.00    -0.390 OA
ATOM     15  H   LIG    1       -4.856   1.464  -0.956  0.00  0.00    +0.210 HD
ENDBRANCH  13  14
ENDBRANCH  11  13
ENDBRANCH   3   8
BRANCH   6  16
ATOM     16  N   LIG    1        4.822   0.799  -0.741  0.00  0.00    -0.343 N 
ATOM     17  H   LIG    1        5.484   1.309  -0.115  0.00  0.00    +0.144 HD
ATOM     18  H   LIG    1        5.206   0.465  -1.654  0.00  0.00    +0.144 HD
ENDBRANCH   6  16
TORSDOF 4
