REMARK  Name = molecules/RXZBMPWDPOLZGW-XMRMVWPWSA-N.pdb
REMARK                            x       y       z     vdW  Elec       q    Type
REMARK                         _______ _______ _______ _____ _____    ______ ____
ROOT
ATOM      1  C   LIG    1       -1.452  -0.808  -1.606  0.00  0.00    +0.140 C 
ATOM      2  C   LIG    1       -0.577  -1.998  -1.829  0.00  0.00    +0.124 C 
ATOM      3  C   LIG    1       -1.307  -3.243  -1.287  0.00  0.00    +0.022 C 
ATOM      4  C   LIG    1       -0.230  -2.360  -3.196  0.00  0.00    +0.313 C 
ATOM      5  O   LIG    1        0.987  -2.983  -3.396  0.00  0.00    -0.458 OA
ATOM      6  C   LIG    1        2.258  -2.542  -3.092  0.00  0.00    +0.210 C 
ATOM      7  C   LIG    1        2.985  -3.391  -2.071  0.00  0.00    +0.126 C 
ATOM      8  C   LIG    1        3.759  -2.554  -1.111  0.00  0.00    +0.158 C 
ATOM      9  C   LIG    1        3.082  -2.131   0.148  0.00  0.00    +0.065 C 
ATOM     10  C   LIG    1        3.705  -2.979   1.286  0.00  0.00    +0.016 C 
ATOM     11  C   LIG    1        3.333  -0.677   0.451  0.00  0.00    +0.066 C 
ATOM     12  C   LIG    1        2.494   0.170   1.292  0.00  0.00    +0.037 C 
ATOM     13  C   LIG    1        2.366  -0.554   2.646  0.00  0.00    +0.014 C 
ATOM     14  C   LIG    1        1.077   0.395   0.830  0.00  0.00    +0.046 C 
ATOM     15  C   LIG    1        0.977   1.213  -0.421  0.00  0.00    +0.090 C 
ATOM     16  C   LIG    1        1.584   2.624  -0.155  0.00  0.00    +0.044 C 
ATOM     17  C   LIG    1       -0.358   1.436  -0.981  0.00  0.00    +0.158 C 
ATOM     18  N   LIG    1        4.404  -0.207  -0.096  0.00  0.00    -0.091 NA
ATOM     19  C   LIG    1        2.078  -4.323  -1.367  0.00  0.00    +0.048 C 
ATOM     20  O   LIG    1       -0.963  -2.142  -4.179  0.00  0.00    -0.250 OA
ATOM     21  C   LIG    1       -0.951   0.519  -1.992  0.00  0.00    +0.047 C 
ATOM     22  C   LIG    1       -0.265   0.595  -3.333  0.00  0.00    +0.013 C 
ENDROOT
BRANCH   6  23
ATOM     23  C   LIG    1        3.040  -2.555  -4.423  0.00  0.00    +0.044 C 
ATOM     24  C   LIG    1        3.105  -3.909  -5.034  0.00  0.00    +0.007 C 
ENDBRANCH   6  23
BRANCH   7  25
ATOM     25  O   LIG    1        3.925  -4.226  -2.762  0.00  0.00    -0.383 OA
ATOM     26  H   LIG    1        3.875  -5.158  -2.449  0.00  0.00    +0.210 HD
ENDBRANCH   7  25
BRANCH   8  27
ATOM     27  O   LIG    1        4.966  -3.256  -0.827  0.00  0.00    -0.388 OA
ATOM     28  H   LIG    1        4.862  -4.214  -0.934  0.00  0.00    +0.210 HD
ENDBRANCH   8  27
BRANCH  15  29
ATOM     29  O   LIG    1        1.903   0.659  -1.306  0.00  0.00    -0.386 OA
ATOM     30  H   LIG    1        2.401   1.313  -1.834  0.00  0.00    +0.210 HD
ENDBRANCH  15  29
BRANCH  18  31
ATOM     31  O   LIG    1        4.863   1.054   0.030  0.00  0.00    -0.365 OA
BRANCH  31  32
ATOM     32  C   LIG    1        5.998   1.387   0.830  0.00  0.00    +0.426 C 
BRANCH  32  33
ATOM     33  O   LIG    1        7.115   0.721   0.373  0.00  0.00    -0.340 OA
BRANCH  33  34
ATOM     34  C   LIG    1        8.221   1.042   1.126  0.00  0.00    +0.192 C 
BRANCH  34  35
ATOM     35  C   LIG    1        8.049   0.646   2.557  0.00  0.00    +0.187 C 
BRANCH  35  36
ATOM     36  O   LIG    1        9.195   0.969   3.294  0.00  0.00    -0.381 OA
ATOM     37  C   LIG    1        9.509   2.309   3.295  0.00  0.00    +0.194 C 
ENDBRANCH  35  36
ENDBRANCH  34  35
ENDBRANCH  33  34
ENDBRANCH  32  33
ENDBRANCH  31  32
ENDBRANCH  18  31
BRANCH  17  38
ATOM     38  O   LIG    1       -1.291   1.773  -0.061  0.00  0.00    -0.342 OA
BRANCH  38  39
ATOM     39  C   LIG    1       -1.724   3.103  -0.092  0.00  0.00    +0.281 C 
ATOM     40  O   LIG    1       -1.359   3.624   1.097  0.00  0.00    -0.346 OA
ATOM     41  C   LIG    1       -2.216   3.977   2.051  0.00  0.00    +0.120 C 
ATOM     42  C   LIG    1       -1.961   3.056   3.261  0.00  0.00    +0.038 C 
ATOM     43  C   LIG    1       -3.684   3.864   1.779  0.00  0.00    +0.053 C 
ATOM     44  C   LIG    1       -3.887   4.280   0.363  0.00  0.00    +0.092 C 
ATOM     45  C   LIG    1       -3.123   3.328  -0.536  0.00  0.00    +0.187 C 
BRANCH  44  46
ATOM     46  N   LIG    1       -5.222   4.486  -0.045  0.00  0.00    -0.303 NA
ATOM     47  C   LIG    1       -6.171   3.471   0.253  0.00  0.00    +0.105 C 
ATOM     48  C   LIG    1       -5.415   5.082  -1.325  0.00  0.00    +0.105 C 
ENDBRANCH  44  46
BRANCH  45  49
ATOM     49  O   LIG    1       -3.164   3.956  -1.804  0.00  0.00    -0.385 OA
ATOM     50  H   LIG    1       -2.475   3.606  -2.401  0.00  0.00    +0.210 HD
ENDBRANCH  45  49
ENDBRANCH  38  39
ENDBRANCH  17  38
BRANCH   1  51
ATOM     51  O   LIG    1       -1.850  -0.782  -0.285  0.00  0.00    -0.347 OA
BRANCH  51  52
ATOM     52  C   LIG    1       -3.148  -1.054   0.012  0.00  0.00    +0.254 C 
ATOM     53  C   LIG    1       -3.383  -2.240   0.914  0.00  0.00    +0.098 C 
ATOM     54  C   LIG    1       -4.501  -1.897   1.900  0.00  0.00    +0.099 C 
ATOM     55  C   LIG    1       -4.843  -3.146   2.670  0.00  0.00    +0.044 C 
ATOM     56  C   LIG    1       -5.659  -1.447   1.028  0.00  0.00    +0.175 C 
ATOM     57  C   LIG    1       -5.183  -0.128   0.403  0.00  0.00    +0.149 C 
ATOM     58  C   LIG    1       -5.544  -0.129  -1.052  0.00  0.00    +0.041 C 
ATOM     59  O   LIG    1       -3.810   0.016   0.629  0.00  0.00    -0.346 OA
BRANCH  56  60
ATOM     60  O   LIG    1       -6.843  -1.287   1.691  0.00  0.00    -0.386 OA
ATOM     61  H   LIG    1       -7.393  -2.111   1.597  0.00  0.00    +0.210 HD
ENDBRANCH  56  60
BRANCH  54  62
ATOM     62  O   LIG    1       -4.078  -0.891   2.727  0.00  0.00    -0.374 OA
ATOM     63  C   LIG    1       -4.958  -0.460   3.680  0.00  0.00    +0.194 C 
ENDBRANCH  54  62
ENDBRANCH  51  52
ENDBRANCH   1  51
TORSDOF 18
