REMARK  Name = molecules/RYBGRHAWFUVMST-MJFIPZRTSA-N.pdb
REMARK                            x       y       z     vdW  Elec       q    Type
REMARK                         _______ _______ _______ _____ _____    ______ ____
ROOT
ATOM      1  C   LIG    1        1.378  -0.459   0.106  0.00  0.00    +0.241 C 
ATOM      2  C   LIG    1        0.676  -0.895   1.337  0.00  0.00    +0.017 C 
ATOM      3  C   LIG    1       -0.435  -1.605   1.218  0.00  0.00    -0.021 C 
ATOM      4  C   LIG    1       -0.896  -1.910  -0.161  0.00  0.00    +0.043 C 
ATOM      5  C   LIG    1       -2.313  -2.390  -0.211  0.00  0.00    +0.068 C 
ATOM      6  C   LIG    1       -3.388  -1.459   0.181  0.00  0.00    +0.055 C 
ATOM      7  C   LIG    1       -2.917  -0.076   0.449  0.00  0.00    -0.038 A 
ATOM      8  C   LIG    1       -3.610   0.847   1.206  0.00  0.00    +0.008 A 
ATOM      9  C   LIG    1       -3.073   2.092   1.408  0.00  0.00    +0.050 A 
ATOM     10  C   LIG    1       -1.847   2.431   0.862  0.00  0.00    +0.162 A 
ATOM     11  C   LIG    1       -1.154   1.503   0.103  0.00  0.00    +0.167 A 
ATOM     12  O   LIG    1        0.050   1.466  -0.578  0.00  0.00    -0.480 OA
ATOM     13  C   LIG    1       -1.733   0.297  -0.061  0.00  0.00    +0.012 A 
ATOM     14  N   LIG    1       -2.512  -2.918  -1.545  0.00  0.00    -0.301 NA
ATOM     15  C   LIG    1       -3.864  -3.213  -1.860  0.00  0.00    +0.105 C 
ATOM     16  C   LIG    1       -1.774  -2.232  -2.551  0.00  0.00    +0.085 C 
ATOM     17  C   LIG    1       -1.436  -0.809  -2.252  0.00  0.00    +0.031 C 
ATOM     18  C   LIG    1       -0.870  -0.576  -0.891  0.00  0.00    +0.049 C 
ATOM     19  C   LIG    1        0.456   0.125  -0.876  0.00  0.00    +0.229 C 
ENDROOT
BRANCH  10  20
ATOM     20  O   LIG    1       -1.288   3.689   1.058  0.00  0.00    -0.491 OA
ATOM     21  C   LIG    1       -1.976   4.642   1.824  0.00  0.00    +0.277 C 
ENDBRANCH  10  20
BRANCH   1  22
ATOM     22  O   LIG    1        2.530   0.295   0.386  0.00  0.00    -0.450 OA
BRANCH  22  23
ATOM     23  C   LIG    1        3.822  -0.101   0.140  0.00  0.00    +0.341 C 
ATOM     24  O   LIG    1        3.972  -1.229  -0.376  0.00  0.00    -0.245 OA
BRANCH  23  25
ATOM     25  C   LIG    1        5.000   0.696   0.438  0.00  0.00    +0.077 A 
ATOM     26  C   LIG    1        4.915   1.953   1.010  0.00  0.00    +0.125 A 
ATOM     27  N   LIG    1        6.051   2.621   1.252  0.00  0.00    -0.262 NA
ATOM     28  C   LIG    1        7.273   2.121   0.963  0.00  0.00    +0.111 A 
ATOM     29  C   LIG    1        7.415   0.863   0.389  0.00  0.00    +0.020 A 
ATOM     30  C   LIG    1        6.242   0.177   0.140  0.00  0.00    +0.018 A 
ENDBRANCH  23  25
ENDBRANCH  22  23
ENDBRANCH   1  22
TORSDOF 4
