REMARK  Name = molecules/RYEFFICCPKWYML-QCGISDTRSA-N.pdb
REMARK                            x       y       z     vdW  Elec       q    Type
REMARK                         _______ _______ _______ _____ _____    ______ ____
ROOT
ATOM      1  C   LIG    1       -1.379   0.314   0.580  0.00  0.00    +0.080 C 
ATOM      2  C   LIG    1       -1.910   0.915   1.865  0.00  0.00    +0.021 C 
ATOM      3  C   LIG    1       -0.531  -0.884   0.812  0.00  0.00    +0.094 C 
ATOM      4  C   LIG    1       -1.540  -2.019   0.798  0.00  0.00    +0.071 C 
ATOM      5  C   LIG    1       -2.635  -1.534  -0.116  0.00  0.00    +0.166 C 
ATOM      6  O   LIG    1       -3.622  -0.702   0.649  0.00  0.00    -0.352 OA
ATOM      7  C   LIG    1        0.458  -1.164  -0.270  0.00  0.00    +0.139 C 
ATOM      8  C   LIG    1        1.269   0.015  -0.718  0.00  0.00    +0.081 C 
ATOM      9  C   LIG    1        0.221   0.910  -1.267  0.00  0.00    +0.224 C 
ATOM     10  O   LIG    1       -0.466  -0.056  -2.098  0.00  0.00    -0.457 OA
ATOM     11  C   LIG    1       -0.335  -1.313  -1.526  0.00  0.00    +0.314 C 
ATOM     12  O   LIG    1       -0.808  -2.358  -2.006  0.00  0.00    -0.250 OA
ATOM     13  C   LIG    1       -2.616  -0.194  -0.168  0.00  0.00    +0.203 C 
ATOM     14  C   LIG    1       -2.888   0.790  -1.203  0.00  0.00    +0.343 C 
ATOM     15  O   LIG    1       -1.937   1.784  -1.080  0.00  0.00    -0.455 OA
ATOM     16  O   LIG    1       -3.799   0.765  -2.053  0.00  0.00    -0.247 OA
ATOM     17  C   LIG    1       -0.828   1.361  -0.305  0.00  0.00    +0.229 C 
ENDROOT
BRANCH   8  18
ATOM     18  C   LIG    1        2.247   0.559   0.219  0.00  0.00    +0.068 C 
ATOM     19  C   LIG    1        3.235  -0.534   0.609  0.00  0.00    +0.041 C 
ATOM     20  C   LIG    1        3.096   1.676  -0.286  0.00  0.00    +0.041 C 
BRANCH  18  21
ATOM     21  O   LIG    1        1.713   0.982   1.445  0.00  0.00    -0.389 OA
ATOM     22  H   LIG    1        2.424   0.966   2.151  0.00  0.00    +0.210 HD
ENDBRANCH  18  21
ENDBRANCH   8  18
BRANCH   3  23
ATOM     23  O   LIG    1        0.024  -0.919   2.092  0.00  0.00    -0.387 OA
ATOM     24  H   LIG    1       -0.372  -0.285   2.713  0.00  0.00    +0.210 HD
ENDBRANCH   3  23
TORSDOF 3
