REMARK  Name = molecules/RYQOGSFEJBUZBX-UHFFFAOYSA-N.pdb
REMARK                            x       y       z     vdW  Elec       q    Type
REMARK                         _______ _______ _______ _____ _____    ______ ____
ROOT
ATOM      1  N   LIG    1       -0.049   0.250  -0.303  0.00  0.00    -0.300 N 
ATOM      2  C   LIG    1       -0.843   1.431  -0.088  0.00  0.00    +0.038 A 
ATOM      3  C   LIG    1       -2.192   1.349   0.186  0.00  0.00    -0.016 A 
ATOM      4  C   LIG    1       -2.930   2.526   0.377  0.00  0.00    +0.006 A 
ATOM      5  C   LIG    1       -2.334   3.763   0.297  0.00  0.00    +0.000 A 
ATOM      6  C   LIG    1       -0.989   3.867   0.024  0.00  0.00    +0.002 A 
ATOM      7  C   LIG    1       -2.922   0.069   0.284  0.00  0.00    +0.019 C 
ATOM      8  C   LIG    1       -3.572  -0.078   1.650  0.00  0.00    +0.021 C 
ATOM      9  C   LIG    1       -2.072  -1.092   0.049  0.00  0.00    -0.016 A 
ATOM     10  C   LIG    1       -2.679  -2.334   0.116  0.00  0.00    +0.006 A 
ATOM     11  C   LIG    1       -2.003  -3.505  -0.075  0.00  0.00    +0.000 A 
ATOM     12  C   LIG    1       -0.673  -3.432  -0.343  0.00  0.00    +0.002 A 
ATOM     13  C   LIG    1       -0.051  -2.203  -0.413  0.00  0.00    +0.024 A 
ATOM     14  C   LIG    1       -4.031   0.060  -0.746  0.00  0.00    +0.021 C 
ATOM     15  C   LIG    1       -0.285   2.696  -0.160  0.00  0.00    +0.024 A 
ATOM     16  C   LIG    1       -0.726  -1.010  -0.222  0.00  0.00    +0.038 A 
ENDROOT
BRANCH   1  17
ATOM     17  C   LIG    1        1.350   0.340  -0.546  0.00  0.00    +0.112 C 
BRANCH  17  18
ATOM     18  C   LIG    1        2.148   0.658   0.717  0.00  0.00    +0.035 C 
BRANCH  18  19
ATOM     19  C   LIG    1        3.618   0.753   0.370  0.00  0.00    +0.085 C 
BRANCH  19  21
ATOM     20  C   LIG    1        5.431  -0.498  -0.538  0.00  0.00    +0.104 C 
ATOM     21  N   LIG    1        4.012  -0.535  -0.174  0.00  0.00    -0.308 NA
ATOM     22  C   LIG    1        3.906  -1.579   0.844  0.00  0.00    +0.104 C 
ENDBRANCH  19  21
ENDBRANCH  18  19
ENDBRANCH  17  18
ENDBRANCH   1  17
TORSDOF 4
