REMARK  Name = molecules/RYYVLZVUVIJVGH-UHFFFAOYSA-N.pdb
REMARK                            x       y       z     vdW  Elec       q    Type
REMARK                         _______ _______ _______ _____ _____    ______ ____
ROOT
ATOM      1  C   LIG    1        2.765  -1.640   0.870  0.00  0.00    +0.150 C 
ATOM      2  N   LIG    1        2.062  -0.379   0.726  0.00  0.00    -0.328 N 
ATOM      3  C   LIG    1        2.539   0.852   0.861  0.00  0.00    +0.202 A 
ATOM      4  N   LIG    1        1.547   1.740   0.641  0.00  0.00    -0.218 NA
ATOM      5  C   LIG    1        0.418   1.048   0.361  0.00  0.00    +0.168 A 
ATOM      6  N   LIG    1       -0.820   1.480   0.075  0.00  0.00    -0.280 N 
ATOM      7  C   LIG    1       -1.103   2.896   0.034  0.00  0.00    +0.155 C 
ATOM      8  C   LIG    1       -1.762   0.558  -0.165  0.00  0.00    +0.333 A 
ATOM      9  N   LIG    1       -1.491  -0.766  -0.124  0.00  0.00    -0.262 N 
ATOM     10  C   LIG    1       -0.242  -1.204   0.164  0.00  0.00    +0.282 A 
ATOM     11  O   LIG    1        0.041  -2.441   0.209  0.00  0.00    -0.265 OA
ATOM     12  C   LIG    1       -2.518  -1.755  -0.385  0.00  0.00    +0.157 C 
ATOM     13  O   LIG    1       -2.949   0.882  -0.440  0.00  0.00    -0.246 OA
ATOM     14  C   LIG    1        0.756  -0.281   0.418  0.00  0.00    +0.151 A 
ENDROOT
TORSDOF 0
