REMARK  Name = molecules/RZNUIYPHQFXBAN-XLIONFOSSA-N.pdb
REMARK                            x       y       z     vdW  Elec       q    Type
REMARK                         _______ _______ _______ _____ _____    ______ ____
ROOT
ATOM      1  C   LIG    1       -0.683  -1.823  -0.200  0.00  0.00    +0.073 C 
ATOM      2  C   LIG    1        0.421  -1.423   0.759  0.00  0.00    +0.123 C 
ATOM      3  N   LIG    1        1.664  -1.690   0.064  0.00  0.00    -0.328 N 
ATOM      4  C   LIG    1        1.365  -2.716  -0.940  0.00  0.00    +0.107 C 
ATOM      5  C   LIG    1        0.036  -2.184  -1.445  0.00  0.00    +0.039 C 
ENDROOT
BRANCH   3   6
ATOM      6  C   LIG    1        2.897  -1.079   0.326  0.00  0.00    +0.030 A 
ATOM      7  C   LIG    1        3.088  -0.355   1.503  0.00  0.00    +0.023 A 
ATOM      8  C   LIG    1        4.313   0.231   1.742  0.00  0.00    +0.006 A 
ATOM      9  C   LIG    1        5.380   0.130   0.848  0.00  0.00    -0.037 A 
ATOM     10  C   LIG    1        5.160  -0.588  -0.302  0.00  0.00    +0.006 A 
ATOM     11  C   LIG    1        3.934  -1.178  -0.545  0.00  0.00    +0.023 A 
BRANCH   9  12
ATOM     12  C   LIG    1        6.678   0.780   1.170  0.00  0.00    +0.155 C 
BRANCH  12  13
ATOM     13  C   LIG    1        6.733   2.191   0.717  0.00  0.00    +0.309 C 
ATOM     14  O   LIG    1        5.755   2.704   0.117  0.00  0.00    -0.251 OA
BRANCH  13  15
ATOM     15  O   LIG    1        7.845   2.984   0.936  0.00  0.00    -0.480 OA
ATOM     16  H   LIG    1        8.053   3.226   1.912  0.00  0.00    +0.295 HD
ENDBRANCH  13  15
ENDBRANCH  12  13
ENDBRANCH   9  12
ENDBRANCH   3   6
BRANCH   1  17
ATOM     17  N   LIG    1       -1.633  -0.824  -0.243  0.00  0.00    -0.305 NA
ATOM     18  H   LIG    1       -1.701  -0.265   0.607  0.00  0.00    +0.123 HD
BRANCH  17  19
ATOM     19  C   LIG    1       -2.822  -0.872  -0.982  0.00  0.00    +0.082 C 
ATOM     20  C   LIG    1       -2.582  -0.970  -2.479  0.00  0.00    +0.029 C 
BRANCH  19  30
ATOM     21  C   LIG    1       -4.134   0.754   0.424  0.00  0.00    -0.013 A 
ATOM     22  C   LIG    1       -4.212  -0.230   1.384  0.00  0.00    +0.009 A 
ATOM     23  C   LIG    1       -4.873   0.066   2.562  0.00  0.00    +0.001 A 
ATOM     24  C   LIG    1       -5.437   1.311   2.765  0.00  0.00    +0.001 A 
ATOM     25  C   LIG    1       -5.365   2.298   1.812  0.00  0.00    +0.008 A 
ATOM     26  C   LIG    1       -4.707   2.005   0.640  0.00  0.00    -0.018 A 
ATOM     27  C   LIG    1       -4.599   2.956  -0.372  0.00  0.00    +0.008 A 
ATOM     28  C   LIG    1       -3.949   2.665  -1.542  0.00  0.00    +0.001 A 
ATOM     29  C   LIG    1       -3.391   1.419  -1.728  0.00  0.00    +0.006 A 
ATOM     30  C   LIG    1       -3.478   0.459  -0.753  0.00  0.00    -0.023 A 
ENDBRANCH  19  30
ENDBRANCH  17  19
ENDBRANCH   1  17
TORSDOF 7
