REMARK  Name = molecules/RZTAMFZIAATZDJ-HNNXBMFYSA-N.pdb
REMARK                            x       y       z     vdW  Elec       q    Type
REMARK                         _______ _______ _______ _____ _____    ______ ____
ROOT
ATOM      1  C   LIG    1       -0.919  -0.393  -0.311  0.00  0.00    +0.065 C 
ATOM      2  C   LIG    1       -1.219  -1.383   0.484  0.00  0.00    +0.016 C 
ATOM      3  C   LIG    1       -2.640  -1.606   0.960  0.00  0.00    +0.061 C 
ATOM      4  N   LIG    1       -0.208  -2.277   0.927  0.00  0.00    -0.321 N 
ATOM      5  H   LIG    1       -0.449  -3.085   1.577  0.00  0.00    +0.152 HD
ATOM      6  C   LIG    1        1.142  -2.120   0.521  0.00  0.00    +0.016 C 
ATOM      7  C   LIG    1        2.144  -3.086   1.021  0.00  0.00    +0.061 C 
ATOM      8  C   LIG    1        1.459  -1.124  -0.287  0.00  0.00    +0.065 C 
ATOM      9  C   LIG    1        0.453  -0.151  -0.794  0.00  0.00    +0.097 C 
ENDROOT
BRANCH   9  10
ATOM     10  C   LIG    1        0.872   1.248  -0.559  0.00  0.00    -0.015 A 
ATOM     11  C   LIG    1        0.728   1.781   0.700  0.00  0.00    +0.063 A 
ATOM     12 CL   LIG    1        0.110   0.882   2.077  0.00  0.00    -0.082 Cl
ATOM     13  C   LIG    1        1.082   3.111   0.932  0.00  0.00    +0.060 A 
ATOM     14 CL   LIG    1        0.904   3.815   2.540  0.00  0.00    -0.082 Cl
ATOM     15  C   LIG    1        1.576   3.909  -0.074  0.00  0.00    +0.021 A 
ATOM     16  C   LIG    1        1.716   3.362  -1.332  0.00  0.00    +0.002 A 
ATOM     17  C   LIG    1        1.363   2.047  -1.552  0.00  0.00    +0.006 A 
ENDBRANCH   9  10
BRANCH   1  18
ATOM     18  C   LIG    1       -2.014   0.506  -0.734  0.00  0.00    +0.338 C 
ATOM     19  O   LIG    1       -1.724   1.458  -1.500  0.00  0.00    -0.245 OA
BRANCH  18  20
ATOM     20  O   LIG    1       -3.303   0.359  -0.344  0.00  0.00    -0.462 OA
BRANCH  20  21
ATOM     21  C   LIG    1       -4.375   1.185  -0.718  0.00  0.00    +0.229 C 
ATOM     22  C   LIG    1       -5.661   0.732  -0.103  0.00  0.00    +0.048 C 
ENDBRANCH  20  21
ENDBRANCH  18  20
ENDBRANCH   1  18
BRANCH   8  23
ATOM     23  C   LIG    1        2.838  -0.951  -0.707  0.00  0.00    +0.337 C 
ATOM     24  O   LIG    1        3.168  -0.015  -1.472  0.00  0.00    -0.245 OA
BRANCH  23  25
ATOM     25  O   LIG    1        3.826  -1.819  -0.270  0.00  0.00    -0.465 OA
ATOM     26  C   LIG    1        5.170  -1.630  -0.696  0.00  0.00    +0.280 C 
ENDBRANCH  23  25
ENDBRANCH   8  23
TORSDOF 6
