REMARK  Name = molecules/RZVPBGBYGMDSBG-GGAORHGYSA-N.pdb
REMARK                            x       y       z     vdW  Elec       q    Type
REMARK                         _______ _______ _______ _____ _____    ______ ____
ROOT
ATOM      1  N   LIG    1       -0.684   0.055   0.631  0.00  0.00    -0.236 N 
ATOM      2  C   LIG    1       -0.895  -1.090   1.451  0.00  0.00    +0.206 C 
ATOM      3  C   LIG    1       -1.338  -0.883   2.875  0.00  0.00    +0.203 C 
ATOM      4  O   LIG    1       -1.082  -2.037   3.638  0.00  0.00    -0.375 OA
ATOM      5  C   LIG    1       -1.253  -3.202   2.902  0.00  0.00    +0.179 C 
ATOM      6  C   LIG    1       -0.011  -3.329   1.991  0.00  0.00    +0.138 C 
ATOM      7  N   LIG    1        0.275  -1.952   1.639  0.00  0.00    -0.272 N 
ATOM      8  C   LIG    1        1.554  -1.455   1.549  0.00  0.00    +0.270 C 
ATOM      9  O   LIG    1        2.575  -2.116   1.954  0.00  0.00    -0.268 OA
ATOM     10  C   LIG    1        1.719  -0.121   0.972  0.00  0.00    +0.169 A 
ATOM     11  C   LIG    1        3.009   0.416   0.858  0.00  0.00    +0.201 A 
ATOM     12  C   LIG    1        3.217   1.692   0.313  0.00  0.00    +0.224 A 
ATOM     13  O   LIG    1        4.384   2.148   0.226  0.00  0.00    -0.284 OA
ATOM     14  C   LIG    1        2.115   2.371  -0.096  0.00  0.00    +0.074 A 
ATOM     15  C   LIG    1        0.835   1.828   0.017  0.00  0.00    +0.113 A 
ATOM     16  N   LIG    1        0.659   0.591   0.545  0.00  0.00    -0.260 N 
ENDROOT
BRANCH   1  22
ATOM     17  C   LIG    1       -2.222   2.008   0.254  0.00  0.00    -0.008 A 
ATOM     18  C   LIG    1       -2.283   2.324   1.556  0.00  0.00    +0.007 A 
ATOM     19  C   LIG    1       -2.865   3.550   1.921  0.00  0.00    +0.000 A 
ATOM     20  C   LIG    1       -3.362   4.415   0.976  0.00  0.00    +0.001 A 
ATOM     21  C   LIG    1       -3.299   4.093  -0.345  0.00  0.00    +0.015 A 
ATOM     22  C   LIG    1       -1.643   0.708  -0.154  0.00  0.00    +0.155 C 
ATOM     23  C   LIG    1       -2.791   0.026  -0.778  0.00  0.00    -0.014 A 
ATOM     24  C   LIG    1       -3.563  -0.750   0.004  0.00  0.00    +0.009 A 
ATOM     25  C   LIG    1       -4.690  -1.441  -0.486  0.00  0.00    +0.041 A 
ATOM     26  C   LIG    1       -5.011  -1.313  -1.814  0.00  0.00    +0.159 A 
ATOM     27  F   LIG    1       -6.095  -1.969  -2.316  0.00  0.00    -0.202 F 
ATOM     28  C   LIG    1       -4.230  -0.520  -2.611  0.00  0.00    +0.163 A 
ATOM     29  F   LIG    1       -4.526  -0.365  -3.943  0.00  0.00    -0.202 F 
ATOM     30  C   LIG    1       -3.143   0.141  -2.117  0.00  0.00    +0.006 A 
ATOM     31  C   LIG    1       -2.496   1.077  -3.135  0.00  0.00    +0.112 C 
ATOM     32  S   LIG    1       -2.747   2.790  -2.516  0.00  0.00    -0.120 S 
ATOM     33  C   LIG    1       -2.728   2.883  -0.735  0.00  0.00    +0.014 A 
ENDBRANCH   1  22
BRANCH  11  34
ATOM     34  O   LIG    1        4.074  -0.322   1.277  0.00  0.00    -0.450 OA
BRANCH  34  35
ATOM     35  C   LIG    1        4.832  -1.203   0.493  0.00  0.00    +0.473 C 
BRANCH  35  36
ATOM     36  O   LIG    1        5.402  -0.375  -0.542  0.00  0.00    -0.397 OA
BRANCH  36  37
ATOM     37  C   LIG    1        6.178  -1.014  -1.472  0.00  0.00    +0.513 C 
ATOM     38  O   LIG    1        6.350  -2.268  -1.371  0.00  0.00    -0.203 OA
BRANCH  37  39
ATOM     39  O   LIG    1        6.805  -0.353  -2.553  0.00  0.00    -0.437 OA
ATOM     40  C   LIG    1        7.573  -1.136  -3.450  0.00  0.00    +0.284 C 
ENDBRANCH  37  39
ENDBRANCH  36  37
ENDBRANCH  35  36
ENDBRANCH  34  35
ENDBRANCH  11  34
TORSDOF 6
