REMARK  Name = molecules/RZZPDXZPRHQOCG-OJAKKHQRSA-N.pdb
REMARK                            x       y       z     vdW  Elec       q    Type
REMARK                         _______ _______ _______ _____ _____    ______ ____
ROOT
ATOM      1  C   LIG    1        4.801  -1.494  -0.118  0.00  0.00    +0.195 C 
ATOM      2  C   LIG    1        3.509  -2.185   0.261  0.00  0.00    +0.178 C 
ATOM      3  C   LIG    1        2.591  -1.025   0.253  0.00  0.00    +0.178 C 
ATOM      4  O   LIG    1        3.333   0.128   0.362  0.00  0.00    -0.346 OA
ATOM      5  C   LIG    1        4.271  -0.129  -0.660  0.00  0.00    +0.255 C 
ENDROOT
BRANCH   5   6
ATOM      6  N   LIG    1        5.392   0.767  -0.497  0.00  0.00    -0.270 N 
ATOM      7  C   LIG    1        5.481   1.590   0.556  0.00  0.00    +0.096 A 
ATOM      8  C   LIG    1        6.673   2.250   0.762  0.00  0.00    +0.061 A 
ATOM      9  C   LIG    1        7.702   2.042  -0.131  0.00  0.00    +0.123 A 
ATOM     10  N   LIG    1        7.560   1.212  -1.172  0.00  0.00    -0.178 NA
ATOM     11  C   LIG    1        6.401   0.564  -1.365  0.00  0.00    +0.352 A 
ATOM     12  O   LIG    1        6.337  -0.183  -2.356  0.00  0.00    -0.244 OA
BRANCH   9  13
ATOM     13  N   LIG    1        9.021   2.657   0.058  0.00  0.00    -0.343 N 
ATOM     14  H   LIG    1        9.115   3.584   0.454  0.00  0.00    +0.144 HD
ATOM     15  H   LIG    1        9.873   2.095  -0.208  0.00  0.00    +0.144 HD
ENDBRANCH   9  13
ENDBRANCH   5   6
BRANCH   1  16
ATOM     16  O   LIG    1        5.556  -2.141  -1.033  0.00  0.00    -0.385 OA
ATOM     17  H   LIG    1        6.478  -2.278  -0.657  0.00  0.00    +0.210 HD
ENDBRANCH   1  16
BRANCH   2  18
ATOM     18  O   LIG    1        3.238  -3.082  -0.807  0.00  0.00    -0.386 OA
ATOM     19  H   LIG    1        3.748  -2.819  -1.629  0.00  0.00    +0.210 HD
ENDBRANCH   2  18
BRANCH   3  20
ATOM     20  C   LIG    1        1.291  -1.128   0.948  0.00  0.00    +0.206 C 
BRANCH  20  21
ATOM     21  O   LIG    1        0.626   0.037   0.354  0.00  0.00    -0.284 OA
BRANCH  21  22
ATOM     22  P   LIG    1       -0.675  -0.649  -0.457  0.00  0.00    +0.480 P 
ATOM     23  O   LIG    1       -0.200  -2.084  -0.925  0.00  0.00    -0.227 OA
BRANCH  22  24
ATOM     24  O   LIG    1       -0.894   0.191  -1.943  0.00  0.00    -0.302 OA
ATOM     25  H   LIG    1        0.029   0.523  -2.240  0.00  0.00    +0.222 HD
ENDBRANCH  22  24
BRANCH  22  26
ATOM     26  O   LIG    1       -2.036  -0.721   0.404  0.00  0.00    -0.229 OA
BRANCH  26  27
ATOM     27  P   LIG    1       -2.945  -2.086  -0.118  0.00  0.00    +0.222 P 
ATOM     28  O   LIG    1       -3.189  -2.920   1.107  0.00  0.00    -0.437 OA
ATOM     29  O   LIG    1       -1.992  -2.967  -1.196  0.00  0.00    -0.517 OA
BRANCH  27  30
ATOM     30  O   LIG    1       -4.374  -1.500  -0.857  0.00  0.00    -0.329 OA
BRANCH  30  31
ATOM     31  C   LIG    1       -4.913  -0.628   0.129  0.00  0.00    +0.150 C 
BRANCH  31  32
ATOM     32  C   LIG    1       -6.117  -0.021  -0.509  0.00  0.00    -0.047 C 
BRANCH  32  33
ATOM     33  N   LIG    1       -6.807   0.944   0.322  0.00  0.00    +0.376 N 
ATOM     34  C   LIG    1       -7.632   0.360   1.334  0.00  0.00    -0.093 C 
ATOM     35  C   LIG    1       -5.910   1.915   0.852  0.00  0.00    -0.093 C 
ATOM     36  C   LIG    1       -7.723   1.615  -0.626  0.00  0.00    -0.093 C 
ENDBRANCH  32  33
ENDBRANCH  31  32
ENDBRANCH  30  31
ENDBRANCH  27  30
ENDBRANCH  26  27
ENDBRANCH  22  26
ENDBRANCH  21  22
ENDBRANCH  20  21
ENDBRANCH   3  20
TORSDOF 14
