REMARK  Name = molecules/SAMRUMKYXPVKPA-VFKOLLTISA-N.pdb
REMARK                            x       y       z     vdW  Elec       q    Type
REMARK                         _______ _______ _______ _____ _____    ______ ____
ROOT
ATOM      1  N   LIG    1       -5.501   2.699   1.068  0.00  0.00    -0.270 N 
ATOM      2  H   LIG    1       -5.297   3.482   1.714  0.00  0.00    +0.156 HD
ATOM      3  C   LIG    1       -4.434   2.192   0.271  0.00  0.00    +0.218 C 
ATOM      4  O   LIG    1       -3.274   2.688   0.352  0.00  0.00    -0.275 OA
ENDROOT
BRANCH   1   8
ATOM      5  N   LIG    1       -9.444   1.190   0.935  0.00  0.00    -0.270 N 
ATOM      6  C   LIG    1       -9.097   2.198   1.754  0.00  0.00    +0.096 A 
ATOM      7  C   LIG    1       -7.826   2.721   1.831  0.00  0.00    +0.062 A 
ATOM      8  C   LIG    1       -6.821   2.186   1.014  0.00  0.00    +0.132 A 
ATOM      9  N   LIG    1       -7.218   1.184   0.215  0.00  0.00    -0.178 NA
ATOM     10  C   LIG    1       -8.465   0.691   0.159  0.00  0.00    +0.352 A 
ATOM     11  O   LIG    1       -8.720  -0.266  -0.644  0.00  0.00    -0.244 OA
BRANCH   5  13
ATOM     12  C2* LIG    1      -11.476   0.963  -0.420  0.00  0.00    +0.195 C 
ATOM     13  C1* LIG    1      -10.799   0.659   0.879  0.00  0.00    +0.255 C 
ATOM     14  O4* LIG    1      -10.806  -0.727   1.025  0.00  0.00    -0.346 OA
ATOM     15  C4* LIG    1      -12.045  -1.119   0.524  0.00  0.00    +0.177 C 
ATOM     16  C3* LIG    1      -12.114  -0.359  -0.781  0.00  0.00    +0.178 C 
BRANCH  16  17
ATOM     17  O3* LIG    1      -13.429  -0.186  -1.208  0.00  0.00    -0.386 OA
ATOM     18  H3* LIG    1      -13.685  -1.045  -1.646  0.00  0.00    +0.210 HD
ENDBRANCH  16  17
BRANCH  12  19
ATOM     19  O2* LIG    1      -10.607   1.411  -1.403  0.00  0.00    -0.385 OA
ATOM     20  H2* LIG    1      -10.962   1.196  -2.297  0.00  0.00    +0.210 HD
ENDBRANCH  12  19
BRANCH  15  21
ATOM     21  C5* LIG    1      -12.082  -2.613   0.273  0.00  0.00    +0.190 C 
BRANCH  21  22
ATOM     22  O5* LIG    1      -11.845  -3.261   1.481  0.00  0.00    -0.392 OA
ATOM     23  H5* LIG    1      -10.873  -3.516   1.505  0.00  0.00    +0.210 HD
ENDBRANCH  21  22
ENDBRANCH  15  21
ENDBRANCH   5  13
ENDBRANCH   1   8
BRANCH   3  24
ATOM     24  C   LIG    1       -4.729   1.074  -0.647  0.00  0.00    +0.096 C 
BRANCH  24  25
ATOM     25  C   LIG    1       -3.437   0.599  -1.283  0.00  0.00    +0.009 C 
BRANCH  25  26
ATOM     26  C   LIG    1       -2.549   0.056  -0.208  0.00  0.00    +0.000 C 
BRANCH  26  27
ATOM     27  C   LIG    1       -1.213  -0.485  -0.723  0.00  0.00    +0.000 C 
BRANCH  27  28
ATOM     28  C   LIG    1       -0.421   0.589  -1.368  0.00  0.00    +0.000 C 
BRANCH  28  29
ATOM     29  C   LIG    1        0.844   0.252  -2.013  0.00  0.00    +0.000 C 
BRANCH  29  30
ATOM     30  C   LIG    1        1.922  -0.395  -1.255  0.00  0.00    -0.000 C 
BRANCH  30  31
ATOM     31  C   LIG    1        1.729  -1.786  -0.781  0.00  0.00    -0.000 C 
BRANCH  31  32
ATOM     32  C   LIG    1        2.950  -2.339  -0.034  0.00  0.00    -0.000 C 
BRANCH  32  33
ATOM     33  C   LIG    1        3.219  -1.522   1.161  0.00  0.00    -0.000 C 
BRANCH  33  34
ATOM     34  C   LIG    1        4.382  -2.016   1.992  0.00  0.00    -0.000 C 
BRANCH  34  35
ATOM     35  C   LIG    1        5.673  -2.050   1.262  0.00  0.00    -0.000 C 
BRANCH  35  36
ATOM     36  C   LIG    1        6.132  -0.721   0.749  0.00  0.00    -0.000 C 
BRANCH  36  37
ATOM     37  C   LIG    1        7.437  -0.782   0.019  0.00  0.00    -0.000 C 
BRANCH  37  38
ATOM     38  C   LIG    1        8.563  -1.303   0.881  0.00  0.00    -0.000 C 
BRANCH  38  39
ATOM     39  C   LIG    1        9.867  -1.357   0.148  0.00  0.00    -0.000 C 
BRANCH  39  40
ATOM     40  C   LIG    1       10.321  -0.009  -0.347  0.00  0.00    -0.000 C 
BRANCH  40  41
ATOM     41  C   LIG    1       10.510   0.973   0.791  0.00  0.00    -0.000 C 
BRANCH  41  42
ATOM     42  C   LIG    1       10.968   2.323   0.289  0.00  0.00    -0.000 C 
BRANCH  42  43
ATOM     43  C   LIG    1       12.278   2.256  -0.444  0.00  0.00    -0.003 C 
ATOM     44  C   LIG    1       13.326   1.714   0.506  0.00  0.00    +0.004 C 
ENDBRANCH  42  43
ENDBRANCH  41  42
ENDBRANCH  40  41
ENDBRANCH  39  40
ENDBRANCH  38  39
ENDBRANCH  37  38
ENDBRANCH  36  37
ENDBRANCH  35  36
ENDBRANCH  34  35
ENDBRANCH  33  34
ENDBRANCH  32  33
ENDBRANCH  31  32
ENDBRANCH  30  31
ENDBRANCH  29  30
ENDBRANCH  28  29
ENDBRANCH  27  28
ENDBRANCH  26  27
ENDBRANCH  25  26
ENDBRANCH  24  25
ENDBRANCH   3  24
TORSDOF 26
