REMARK  Name = molecules/SBBDHANTMHIRGW-QMMMGPOBSA-N.pdb
REMARK                            x       y       z     vdW  Elec       q    Type
REMARK                         _______ _______ _______ _____ _____    ______ ____
ROOT
ATOM      1  C   LIG    1        0.025   0.735   0.515  0.00  0.00    +0.242 C 
ATOM      2  O   LIG    1        0.772   0.346   1.470  0.00  0.00    -0.273 OA
ATOM      3  N   LIG    1        0.552   0.907  -0.783  0.00  0.00    -0.313 N 
ATOM      4  H   LIG    1       -0.070   1.238  -1.539  0.00  0.00    +0.149 HD
ENDROOT
BRANCH   1   5
ATOM      5  C   LIG    1       -1.397   1.008   0.775  0.00  0.00    +0.208 C 
BRANCH   5   6
ATOM      6  C   LIG    1       -2.346  -0.003   0.161  0.00  0.00    +0.023 C 
ATOM      7  C   LIG    1       -2.187  -1.384   0.725  0.00  0.00    +0.016 C 
ATOM      8  C   LIG    1       -2.351   0.008  -1.333  0.00  0.00    +0.016 C 
BRANCH   6   9
ATOM      9  C   LIG    1       -3.746   0.491   0.578  0.00  0.00    +0.165 C 
BRANCH   9  10
ATOM     10  O   LIG    1       -3.930   1.772   0.068  0.00  0.00    -0.394 OA
ATOM     11  H   LIG    1       -4.675   2.216   0.553  0.00  0.00    +0.209 HD
ENDBRANCH   9  10
ENDBRANCH   6   9
ENDBRANCH   5   6
BRANCH   5  12
ATOM     12  O   LIG    1       -1.587   0.948   2.170  0.00  0.00    -0.382 OA
ATOM     13  H   LIG    1       -0.932   0.278   2.516  0.00  0.00    +0.210 HD
ENDBRANCH   5  12
ENDBRANCH   1   5
BRANCH   3  14
ATOM     14  C   LIG    1        1.943   0.652  -1.111  0.00  0.00    +0.105 C 
BRANCH  14  15
ATOM     15  C   LIG    1        2.325  -0.772  -0.837  0.00  0.00    +0.030 C 
BRANCH  15  16
ATOM     16  C   LIG    1        3.776  -1.007  -1.194  0.00  0.00    +0.122 C 
BRANCH  16  17
ATOM     17  C   LIG    1        4.698  -0.153  -0.432  0.00  0.00    +0.305 C 
ATOM     18  O   LIG    1        4.926   1.062  -0.745  0.00  0.00    -0.251 OA
BRANCH  17  19
ATOM     19  O   LIG    1        5.349  -0.659   0.661  0.00  0.00    -0.481 OA
ATOM     20  H   LIG    1        5.923  -1.502   0.606  0.00  0.00    +0.295 HD
ENDBRANCH  17  19
ENDBRANCH  16  17
ENDBRANCH  15  16
ENDBRANCH  14  15
ENDBRANCH   3  14
TORSDOF 10
