REMARK  Name = molecules/SBEOBYJLAQKTQX-UHFFFAOYSA-N.pdb
REMARK                            x       y       z     vdW  Elec       q    Type
REMARK                         _______ _______ _______ _____ _____    ______ ____
ROOT
ATOM      1  C   LIG    1        1.171   0.720  -0.811  0.00  0.00    +0.020 C 
ATOM      2  C   LIG    1        1.975  -0.159   0.142  0.00  0.00    +0.054 C 
ATOM      3  C   LIG    1        1.078  -0.901   1.099  0.00  0.00    +0.020 C 
ATOM      4  C   LIG    1       -0.352  -0.567   1.072  0.00  0.00    +0.018 C 
ATOM      5  C   LIG    1       -0.983  -0.304  -0.260  0.00  0.00    +0.021 C 
ATOM      6  C   LIG    1        0.042  -0.137  -1.320  0.00  0.00    +0.018 C 
ENDROOT
BRANCH   5   7
ATOM      7  C   LIG    1       -1.881   0.868  -0.055  0.00  0.00    -0.037 A 
ATOM      8  C   LIG    1       -2.632   0.873   1.128  0.00  0.00    +0.004 A 
ATOM      9  C   LIG    1       -3.503   1.908   1.394  0.00  0.00    +0.000 A 
ATOM     10  C   LIG    1       -3.646   2.952   0.500  0.00  0.00    +0.000 A 
ATOM     11  C   LIG    1       -2.894   2.941  -0.675  0.00  0.00    +0.000 A 
ATOM     12  C   LIG    1       -2.031   1.900  -0.923  0.00  0.00    +0.004 A 
ENDBRANCH   5   7
BRANCH   5  13
ATOM     13  C   LIG    1       -1.883  -1.441  -0.659  0.00  0.00    -0.037 A 
ATOM     14  C   LIG    1       -1.400  -2.739  -0.821  0.00  0.00    +0.004 A 
ATOM     15  C   LIG    1       -2.227  -3.789  -1.193  0.00  0.00    +0.000 A 
ATOM     16  C   LIG    1       -3.564  -3.541  -1.409  0.00  0.00    +0.000 A 
ATOM     17  C   LIG    1       -4.092  -2.262  -1.260  0.00  0.00    +0.000 A 
ATOM     18  C   LIG    1       -3.224  -1.248  -0.887  0.00  0.00    +0.004 A 
ENDBRANCH   5  13
BRANCH   2  19
ATOM     19  N   LIG    1        3.037   0.520   0.766  0.00  0.00    -0.311 NA
ATOM     20  H   LIG    1        2.776   1.208   1.496  0.00  0.00    +0.122 HD
BRANCH  19  21
ATOM     21  C   LIG    1        4.059   0.965  -0.123  0.00  0.00    +0.048 C 
ATOM     22  C   LIG    1        5.022   1.824   0.692  0.00  0.00    +0.023 C 
ATOM     23  C   LIG    1        4.838  -0.127  -0.819  0.00  0.00    +0.023 C 
ENDBRANCH  19  21
ENDBRANCH   2  19
TORSDOF 4
