REMARK  Name = molecules/SBJGFIXQRZOVTO-UHFFFAOYSA-N.pdb
REMARK                            x       y       z     vdW  Elec       q    Type
REMARK                         _______ _______ _______ _____ _____    ______ ____
ROOT
ATOM      1  C   LIG    1       -3.774   1.053   1.067  0.00  0.00    +0.253 C 
ATOM      2  O   LIG    1       -3.314   1.947   1.791  0.00  0.00    -0.272 OA
ATOM      3  N   LIG    1       -3.018   0.157   0.284  0.00  0.00    -0.269 N 
ATOM      4  C   LIG    1       -1.589   0.228   0.283  0.00  0.00    +0.040 A 
ATOM      5  C   LIG    1       -0.936   0.543   1.452  0.00  0.00    +0.027 A 
ATOM      6  C   LIG    1        0.462   0.604   1.410  0.00  0.00    +0.048 A 
ATOM      7  C   LIG    1        1.169   0.361   0.245  0.00  0.00    +0.132 A 
ATOM      8  C   LIG    1        0.456   0.054  -0.881  0.00  0.00    +0.051 A 
ATOM      9  C   LIG    1       -0.911  -0.019  -0.893  0.00  0.00    -0.022 A 
ATOM     10  C   LIG    1       -1.726  -0.347  -2.087  0.00  0.00    +0.038 C 
ATOM     11  C   LIG    1       -2.765  -1.349  -1.655  0.00  0.00    +0.024 C 
ATOM     12  C   LIG    1       -3.644  -0.879  -0.553  0.00  0.00    +0.114 C 
ENDROOT
BRANCH   1  13
ATOM     13  C   LIG    1       -5.251   0.939   1.038  0.00  0.00    +0.257 C 
ATOM     14 CL   LIG    1       -6.024   2.014   2.236  0.00  0.00    -0.094 Cl
ATOM     15 CL   LIG    1       -5.747   1.615  -0.563  0.00  0.00    -0.094 Cl
ENDBRANCH   1  13
BRANCH   7  16
ATOM     16  O   LIG    1        2.521   0.442   0.292  0.00  0.00    -0.420 OA
BRANCH  16  17
ATOM     17  C   LIG    1        3.401  -0.577   0.577  0.00  0.00    +0.380 C 
ATOM     18  O   LIG    1        2.870  -1.677   0.813  0.00  0.00    -0.241 OA
BRANCH  17  19
ATOM     19  C   LIG    1        4.837  -0.423   0.611  0.00  0.00    +0.212 A 
ATOM     20  O   LIG    1        5.706  -1.367   0.877  0.00  0.00    -0.456 OA
ATOM     21  C   LIG    1        6.913  -0.870   0.818  0.00  0.00    +0.196 A 
ATOM     22  C   LIG    1        6.850   0.478   0.494  0.00  0.00    +0.042 A 
ATOM     23  C   LIG    1        5.502   0.766   0.360  0.00  0.00    +0.056 A 
ENDBRANCH  17  19
ENDBRANCH  16  17
ENDBRANCH   7  16
TORSDOF 4
