REMARK  Name = molecules/SBNFWQZLDJGRLK-RTWAWAEBSA-N.pdb
REMARK                            x       y       z     vdW  Elec       q    Type
REMARK                         _______ _______ _______ _____ _____    ______ ____
ROOT
ATOM      1  C   LIG    1        0.144  -0.995  -2.192  0.00  0.00    +0.267 C 
ENDROOT
BRANCH   1   2
ATOM      2  C   LIG    1        1.406  -0.378  -1.714  0.00  0.00    -0.007 A 
ATOM      3  C   LIG    1        2.136  -1.063  -0.766  0.00  0.00    +0.053 A 
ATOM      4  C   LIG    1        3.317  -0.560  -0.266  0.00  0.00    +0.129 A 
ATOM      5  C   LIG    1        3.772   0.647  -0.723  0.00  0.00    +0.046 A 
ATOM      6  C   LIG    1        3.041   1.328  -1.669  0.00  0.00    +0.004 A 
ATOM      7  C   LIG    1        1.861   0.833  -2.174  0.00  0.00    +0.007 A 
BRANCH   4   8
ATOM      8  O   LIG    1        4.040  -1.264   0.690  0.00  0.00    -0.456 OA
BRANCH   8   9
ATOM      9  C   LIG    1        5.218  -0.772   1.195  0.00  0.00    +0.128 A 
ATOM     10  C   LIG    1        5.275   0.032   2.307  0.00  0.00    +0.046 A 
ATOM     11  C   LIG    1        6.461   0.525   2.812  0.00  0.00    +0.004 A 
ATOM     12  C   LIG    1        7.646   0.204   2.182  0.00  0.00    +0.000 A 
ATOM     13  C   LIG    1        7.585  -0.606   1.063  0.00  0.00    +0.004 A 
ATOM     14  C   LIG    1        6.411  -1.104   0.550  0.00  0.00    +0.046 A 
ENDBRANCH   8   9
ENDBRANCH   4   8
ENDBRANCH   1   2
BRANCH   1  15
ATOM     15  O   LIG    1       -1.004  -0.452  -1.626  0.00  0.00    -0.460 OA
BRANCH  15  16
ATOM     16  C   LIG    1       -1.323  -0.428  -0.279  0.00  0.00    +0.312 C 
ATOM     17  O   LIG    1       -0.517  -0.936   0.524  0.00  0.00    -0.250 OA
BRANCH  16  19
ATOM     18  C   LIG    1       -3.759   0.080  -0.787  0.00  0.00    +0.032 C 
ATOM     19  C   LIG    1       -2.612   0.199   0.193  0.00  0.00    +0.111 C 
ATOM     20  C   LIG    1       -3.081   1.386  -0.587  0.00  0.00    -0.014 C 
ATOM     21  C   LIG    1       -3.926   2.434   0.133  0.00  0.00    +0.012 C 
ATOM     22  C   LIG    1       -2.131   1.937  -1.596  0.00  0.00    +0.012 C 
BRANCH  18  23
ATOM     23  C   LIG    1       -5.108  -0.116  -0.194  0.00  0.00    -0.023 C 
ATOM     24  C   LIG    1       -5.391  -1.059   0.693  0.00  0.00    -0.079 C 
ATOM     25  C   LIG    1       -6.766  -1.186   1.236  0.00  0.00    +0.038 C 
ATOM     26  C   LIG    1       -4.373  -2.034   1.191  0.00  0.00    +0.038 C 
ENDBRANCH  18  23
ENDBRANCH  16  19
ENDBRANCH  15  16
ENDBRANCH   1  15
TORSDOF 7
