REMARK  Name = molecules/SBQAKZYUNWNIRL-WIPKXTQKSA-N.pdb
REMARK                            x       y       z     vdW  Elec       q    Type
REMARK                         _______ _______ _______ _____ _____    ______ ____
ROOT
ATOM      1  C   LIG    1       -3.410  -1.657   0.446  0.00  0.00    +0.015 C 
ATOM      2  C   LIG    1       -3.623  -0.479  -0.424  0.00  0.00    +0.009 C 
ATOM      3  C   LIG    1       -3.899   0.792   0.285  0.00  0.00    +0.041 C 
ATOM      4  C   LIG    1       -5.143   1.518  -0.198  0.00  0.00    +0.120 C 
ATOM      5  C   LIG    1       -6.348   0.710  -0.298  0.00  0.00    +0.035 C 
ATOM      6  C   LIG    1       -7.308   0.602   0.844  0.00  0.00    +0.013 C 
ATOM      7  C   LIG    1       -6.901  -0.448   1.868  0.00  0.00    +0.020 C 
ATOM      8  C   LIG    1       -7.543   1.826   1.585  0.00  0.00    -0.012 C 
ATOM      9  C   LIG    1       -8.714   2.421   1.693  0.00  0.00    +0.047 C 
ATOM     10  C   LIG    1       -9.914   1.877   1.053  0.00  0.00    +0.179 C 
ATOM     11  O   LIG    1      -11.037   2.438   1.150  0.00  0.00    -0.288 OA
ATOM     12  C   LIG    1       -9.700   0.654   0.308  0.00  0.00    +0.051 C 
ATOM     13  C   LIG    1       -8.533   0.059   0.198  0.00  0.00    -0.056 C 
ATOM     14  C   LIG    1       -8.432  -1.218  -0.626  0.00  0.00    +0.032 C 
ATOM     15  C   LIG    1       -7.216  -1.267  -1.474  0.00  0.00    +0.008 C 
ATOM     16  C   LIG    1       -6.026  -0.745  -0.695  0.00  0.00    -0.000 C 
ATOM     17  C   LIG    1       -4.775  -0.715  -1.429  0.00  0.00    +0.002 C 
ATOM     18  C   LIG    1       -4.252  -1.987  -2.047  0.00  0.00    +0.008 C 
ATOM     19  C   LIG    1       -2.758  -1.633  -2.274  0.00  0.00    +0.043 C 
ATOM     20  C   LIG    1       -2.516  -0.382  -1.466  0.00  0.00    +0.133 C 
ENDROOT
BRANCH   4  21
ATOM     21  O   LIG    1       -5.213   2.700   0.485  0.00  0.00    -0.391 OA
ATOM     22  H   LIG    1       -4.338   3.150   0.440  0.00  0.00    +0.210 HD
ENDBRANCH   4  21
BRANCH  20  23
ATOM     23  C   LIG    1       -1.208  -0.178  -0.913  0.00  0.00    +0.202 C 
ATOM     24  O   LIG    1       -0.751   0.988  -0.976  0.00  0.00    -0.291 OA
BRANCH  23  25
ATOM     25  C   LIG    1       -0.328  -1.171  -0.284  0.00  0.00    +0.309 C 
BRANCH  25  26
ATOM     26  O   LIG    1        0.899  -0.516   0.133  0.00  0.00    -0.454 OA
BRANCH  26  27
ATOM     27  C   LIG    1        0.880   0.474   1.092  0.00  0.00    +0.332 C 
ATOM     28  O   LIG    1       -0.290   0.734   1.560  0.00  0.00    -0.246 OA
BRANCH  27  29
ATOM     29  C   LIG    1        2.007   1.212   1.598  0.00  0.00    +0.090 C 
ATOM     30  C   LIG    1        3.241   1.046   1.182  0.00  0.00    -0.066 C 
ATOM     31  C   LIG    1        3.536   0.103   0.098  0.00  0.00    +0.039 C 
BRANCH  30  32
ATOM     32  C   LIG    1        4.362   1.847   1.758  0.00  0.00    +0.035 C 
BRANCH  32  33
ATOM     33  C   LIG    1        5.410   1.057   2.443  0.00  0.00    +0.031 C 
BRANCH  33  34
ATOM     34  C   LIG    1        6.123   0.058   1.632  0.00  0.00    -0.028 C 
ATOM     35  C   LIG    1        7.441   0.243   1.414  0.00  0.00    -0.076 C 
ATOM     36  C   LIG    1        8.114   1.436   2.001  0.00  0.00    +0.039 C 
BRANCH  35  37
ATOM     37  C   LIG    1        8.199  -0.734   0.604  0.00  0.00    +0.034 C 
BRANCH  37  38
ATOM     38  C   LIG    1        8.754   0.016  -0.584  0.00  0.00    +0.031 C 
BRANCH  38  39
ATOM     39  C   LIG    1        9.541  -0.885  -1.466  0.00  0.00    -0.028 C 
ATOM     40  C   LIG    1       10.826  -0.648  -1.718  0.00  0.00    -0.080 C 
ATOM     41  C   LIG    1       11.473   0.553  -1.092  0.00  0.00    +0.038 C 
ATOM     42  C   LIG    1       11.566  -1.563  -2.594  0.00  0.00    +0.038 C 
ENDBRANCH  38  39
ENDBRANCH  37  38
ENDBRANCH  35  37
ENDBRANCH  33  34
ENDBRANCH  32  33
ENDBRANCH  30  32
ENDBRANCH  27  29
ENDBRANCH  26  27
ENDBRANCH  25  26
ENDBRANCH  23  25
ENDBRANCH  20  23
BRANCH  20  43
ATOM     43  O   LIG    1       -2.909   0.761  -2.235  0.00  0.00    -0.380 OA
ATOM     44  H   LIG    1       -2.836   0.528  -3.191  0.00  0.00    +0.211 HD
ENDBRANCH  20  43
TORSDOF 13
