REMARK  Name = molecules/SBUQZKJEOOQSBV-QMMMGPOBSA-N.pdb
REMARK                            x       y       z     vdW  Elec       q    Type
REMARK                         _______ _______ _______ _____ _____    ______ ____
ROOT
ATOM      1  C   LIG    1       -0.782   0.017  -0.571  0.00  0.00    -0.046 A 
ATOM      2  C   LIG    1       -1.287   1.077   0.133  0.00  0.00    +0.007 A 
ATOM      3  C   LIG    1       -2.634   1.148   0.507  0.00  0.00    +0.045 A 
ATOM      4  C   LIG    1       -3.504   0.137   0.171  0.00  0.00    +0.117 A 
ATOM      5  C   LIG    1       -2.999  -0.939  -0.542  0.00  0.00    +0.045 A 
ATOM      6  C   LIG    1       -1.679  -1.004  -0.905  0.00  0.00    +0.007 A 
ENDROOT
BRANCH   4   7
ATOM      7  O   LIG    1       -4.860   0.166   0.525  0.00  0.00    -0.507 OA
ATOM      8  H   LIG    1       -5.208   0.959   1.043  0.00  0.00    +0.292 HD
ENDBRANCH   4   7
BRANCH   1   9
ATOM      9  C   LIG    1        0.642  -0.079  -0.967  0.00  0.00    +0.053 C 
BRANCH   9  10
ATOM     10  C   LIG    1        1.492  -0.805   0.039  0.00  0.00    +0.055 C 
ATOM     11  C   LIG    1        1.520  -0.165   1.399  0.00  0.00    +0.024 C 
BRANCH  10  12
ATOM     12  N   LIG    1        2.863  -0.861  -0.428  0.00  0.00    -0.316 NA
ATOM     13  H   LIG    1        3.414  -1.340   0.337  0.00  0.00    +0.122 HD
ATOM     14  C   LIG    1        3.382   0.486  -0.531  0.00  0.00    +0.101 C 
ENDBRANCH  10  12
ENDBRANCH   9  10
ENDBRANCH   1   9
TORSDOF 4
