REMARK  Name = molecules/SEBMTIQKRHYNIT-UHFFFAOYSA-N.pdb
REMARK                            x       y       z     vdW  Elec       q    Type
REMARK                         _______ _______ _______ _____ _____    ______ ____
ROOT
ATOM      1  C   LIG    1        4.974   0.003  -0.675  0.00  0.00    +0.104 C 
ATOM      2  N   LIG    1        3.623  -0.107  -0.206  0.00  0.00    -0.305 NA
ATOM      3  C   LIG    1        2.965   1.098   0.070  0.00  0.00    +0.088 C 
ATOM      4  C   LIG    1        1.647   1.291  -0.642  0.00  0.00    +0.047 C 
ATOM      5  C   LIG    1        0.802   0.048  -0.434  0.00  0.00    -0.057 C 
ATOM      6  C   LIG    1       -0.361   0.038   0.114  0.00  0.00    +0.007 C 
ATOM      7  C   LIG    1       -1.003   1.333   0.480  0.00  0.00    +0.075 A 
ATOM      8  N   LIG    1       -0.170   2.125   1.135  0.00  0.00    -0.255 NA
ATOM      9  C   LIG    1       -0.536   3.342   1.563  0.00  0.00    +0.111 A 
ATOM     10  C   LIG    1       -1.835   3.741   1.290  0.00  0.00    +0.020 A 
ATOM     11  C   LIG    1       -2.722   2.923   0.604  0.00  0.00    +0.007 A 
ATOM     12  C   LIG    1       -2.322   1.657   0.165  0.00  0.00    -0.021 A 
ATOM     13  C   LIG    1       -3.338   0.901  -0.578  0.00  0.00    +0.042 C 
ATOM     14  C   LIG    1       -3.569  -0.514  -0.308  0.00  0.00    +0.040 C 
ATOM     15  C   LIG    1       -2.470  -1.409   0.068  0.00  0.00    -0.039 A 
ATOM     16  C   LIG    1       -2.974  -2.717   0.283  0.00  0.00    +0.004 A 
ATOM     17  C   LIG    1       -2.109  -3.688   0.702  0.00  0.00    +0.000 A 
ATOM     18  C   LIG    1       -0.772  -3.473   0.930  0.00  0.00    +0.001 A 
ATOM     19  C   LIG    1       -0.299  -2.206   0.719  0.00  0.00    +0.009 A 
ATOM     20  C   LIG    1       -1.125  -1.216   0.299  0.00  0.00    -0.013 A 
ATOM     21  C   LIG    1        1.529  -1.081  -1.108  0.00  0.00    +0.047 C 
ATOM     22  C   LIG    1        2.918  -1.252  -0.607  0.00  0.00    +0.088 C 
ENDROOT
TORSDOF 0
