REMARK  Name = molecules/SEERZIQQUAZTOL-ANMDKAQQSA-N.pdb
REMARK                            x       y       z     vdW  Elec       q    Type
REMARK                         _______ _______ _______ _____ _____    ______ ____
ROOT
ATOM      1  C   LIG    1       -0.392  -0.723  -0.507  0.00  0.00    +0.004 A 
ATOM      2  C   LIG    1       -1.125   0.098   0.260  0.00  0.00    -0.002 A 
ATOM      3  C   LIG    1       -2.503  -0.193   0.623  0.00  0.00    +0.008 A 
ATOM      4  C   LIG    1       -3.033  -1.351   0.133  0.00  0.00    +0.050 A 
ATOM      5  N   LIG    1       -2.258  -2.176  -0.670  0.00  0.00    -0.255 NA
ATOM      6  C   LIG    1       -1.011  -1.909  -0.991  0.00  0.00    +0.052 A 
ENDROOT
BRANCH   2   7
ATOM      7  C   LIG    1       -0.783   1.468   0.681  0.00  0.00    -0.017 A 
ATOM      8  C   LIG    1       -0.121   1.928   1.712  0.00  0.00    +0.011 A 
ATOM      9  C   LIG    1       -0.031   3.337   1.913  0.00  0.00    +0.039 A 
ATOM     10  C   LIG    1       -0.636   4.239   1.037  0.00  0.00    +0.123 A 
ATOM     11  F   LIG    1       -0.519   5.557   1.223  0.00  0.00    -0.205 F 
ATOM     12  C   LIG    1       -1.353   3.725  -0.058  0.00  0.00    +0.039 A 
ATOM     13  C   LIG    1       -1.432   2.384  -0.242  0.00  0.00    +0.011 A 
ENDBRANCH   2   7
BRANCH   4  14
ATOM     14  C   LIG    1       -4.481  -1.656   0.365  0.00  0.00    +0.032 C 
ATOM     15  C   LIG    1       -4.706  -2.916   1.106  0.00  0.00    +0.014 C 
ATOM     16  C   LIG    1       -5.463  -0.563   0.322  0.00  0.00    +0.014 C 
ENDBRANCH   4  14
BRANCH   6  17
ATOM     17  C   LIG    1       -0.181  -2.635  -2.020  0.00  0.00    +0.032 C 
ATOM     18  C   LIG    1       -0.927  -3.867  -2.438  0.00  0.00    +0.014 C 
ATOM     19  C   LIG    1       -0.289  -1.718  -3.259  0.00  0.00    +0.014 C 
ENDBRANCH   6  17
BRANCH   1  20
ATOM     20  C   LIG    1        1.027  -0.545  -0.692  0.00  0.00    +0.008 C 
ATOM     21  C   LIG    1        1.775   0.370  -1.159  0.00  0.00    +0.005 C 
BRANCH  21  22
ATOM     22  C   LIG    1        3.260   0.107  -1.127  0.00  0.00    +0.140 C 
BRANCH  22  23
ATOM     23  O   LIG    1        3.578  -0.219  -2.466  0.00  0.00    -0.388 OA
ATOM     24  H   LIG    1        3.388  -1.160  -2.560  0.00  0.00    +0.210 HD
ENDBRANCH  22  23
BRANCH  22  25
ATOM     25  C   LIG    1        4.035   1.312  -0.714  0.00  0.00    +0.067 C 
BRANCH  25  26
ATOM     26  C   LIG    1        5.489   0.973  -0.598  0.00  0.00    +0.128 C 
BRANCH  26  27
ATOM     27  O   LIG    1        6.213   2.113  -0.204  0.00  0.00    -0.391 OA
ATOM     28  H   LIG    1        6.015   2.221   0.777  0.00  0.00    +0.210 HD
ENDBRANCH  26  27
BRANCH  26  29
ATOM     29  C   LIG    1        5.729  -0.066   0.511  0.00  0.00    +0.151 C 
BRANCH  29  30
ATOM     30  C   LIG    1        7.188  -0.338   0.526  0.00  0.00    +0.307 C 
ATOM     31  O   LIG    1        7.946   0.116  -0.340  0.00  0.00    -0.251 OA
BRANCH  30  32
ATOM     32  O   LIG    1        7.759  -1.116   1.533  0.00  0.00    -0.481 OA
ATOM     33  H   LIG    1        8.082  -0.612   2.387  0.00  0.00    +0.295 HD
ENDBRANCH  30  32
ENDBRANCH  29  30
ENDBRANCH  26  29
ENDBRANCH  25  26
ENDBRANCH  22  25
ENDBRANCH  21  22
ENDBRANCH   1  20
BRANCH   3  34
ATOM     34  C   LIG    1       -2.940   0.601   1.744  0.00  0.00    +0.197 C 
BRANCH  34  35
ATOM     35  O   LIG    1       -3.865   1.601   1.642  0.00  0.00    -0.378 OA
ATOM     36  C   LIG    1       -4.006   2.088   2.981  0.00  0.00    +0.194 C 
ENDBRANCH  34  35
ENDBRANCH   3  34
TORSDOF 14
