REMARK  Name = molecules/SEQDDYPDSLOBDC-HNNXBMFYSA-N.pdb
REMARK                            x       y       z     vdW  Elec       q    Type
REMARK                         _______ _______ _______ _____ _____    ______ ____
ROOT
ATOM      1  C   LIG    1        3.645  -0.562  -1.074  0.00  0.00    +0.138 C 
ATOM      2  N   LIG    1        2.517  -0.563  -0.213  0.00  0.00    -0.270 N 
ATOM      3  C   LIG    1        2.209  -1.734   0.587  0.00  0.00    +0.271 C 
ATOM      4  C   LIG    1        1.119  -1.917   1.579  0.00  0.00    +0.320 C 
ATOM      5  N   LIG    1       -0.163  -1.474   1.084  0.00  0.00    -0.243 NA
ATOM      6  C   LIG    1       -0.515  -0.374   0.488  0.00  0.00    +0.078 C 
ATOM      7  C   LIG    1        0.427   0.689   0.209  0.00  0.00    +0.023 A 
ATOM      8  C   LIG    1       -0.194   1.930   0.330  0.00  0.00    +0.032 A 
ATOM      9  C   LIG    1        0.562   3.042   0.048  0.00  0.00    +0.042 A 
ATOM     10 CL   LIG    1       -0.177   4.633   0.172  0.00  0.00    -0.084 Cl
ATOM     11  C   LIG    1        1.897   2.991  -0.341  0.00  0.00    +0.022 A 
ATOM     12  C   LIG    1        2.508   1.753  -0.453  0.00  0.00    +0.025 A 
ATOM     13  O   LIG    1        2.954  -2.714   0.421  0.00  0.00    -0.270 OA
ATOM     14  C   LIG    1        1.755   0.636  -0.173  0.00  0.00    +0.045 A 
ENDROOT
BRANCH   6  15
ATOM     15  C   LIG    1       -1.916  -0.248   0.133  0.00  0.00    +0.001 A 
ATOM     16  C   LIG    1       -2.787  -1.236   0.623  0.00  0.00    +0.010 A 
ATOM     17  C   LIG    1       -4.098  -1.287   0.258  0.00  0.00    +0.001 A 
ATOM     18  C   LIG    1       -4.655  -0.378  -0.612  0.00  0.00    +0.000 A 
ATOM     19  C   LIG    1       -3.800   0.588  -1.092  0.00  0.00    +0.001 A 
ATOM     20  C   LIG    1       -2.467   0.650  -0.731  0.00  0.00    +0.010 A 
ENDBRANCH   6  15
BRANCH   4  21
ATOM     21  O   LIG    1        1.034  -3.269   1.877  0.00  0.00    -0.364 OA
ATOM     22  H   LIG    1        0.982  -3.742   0.993  0.00  0.00    +0.212 HD
ENDBRANCH   4  21
TORSDOF 2
