REMARK  Name = molecules/SETMGIIITGNLAS-UHFFFAOYSA-N.pdb
REMARK                            x       y       z     vdW  Elec       q    Type
REMARK                         _______ _______ _______ _____ _____    ______ ____
ROOT
ATOM      1  O   LIG    1       -2.010   2.404  -0.157  0.00  0.00    -0.288 OA
ATOM      2  C   LIG    1       -1.747   1.182  -0.030  0.00  0.00    +0.210 C 
ATOM      3  C   LIG    1       -2.709   0.077   0.124  0.00  0.00    +0.173 C 
ATOM      4  O   LIG    1       -1.997  -1.013   0.621  0.00  0.00    -0.477 OA
ATOM      5  C   LIG    1       -0.633  -0.754   0.387  0.00  0.00    +0.133 A 
ATOM      6  C   LIG    1        0.471  -1.595   0.495  0.00  0.00    +0.047 A 
ATOM      7  C   LIG    1        1.730  -1.116   0.211  0.00  0.00    +0.015 A 
ATOM      8  C   LIG    1        1.938   0.177  -0.180  0.00  0.00    +0.018 A 
ATOM      9  C   LIG    1        0.829   0.991  -0.279  0.00  0.00    +0.026 A 
ATOM     10  C   LIG    1       -4.123   0.335   0.455  0.00  0.00    +0.060 C 
ATOM     11  C   LIG    1       -3.731  -0.212  -0.911  0.00  0.00    +0.060 C 
ATOM     12  C   LIG    1       -0.433   0.539  -0.003  0.00  0.00    +0.064 A 
ENDROOT
BRANCH   8  13
ATOM     13  C   LIG    1        3.263   0.681  -0.478  0.00  0.00    +0.160 C 
ATOM     14  C   LIG    1        4.441  -0.188  -0.371  0.00  0.00    +0.091 C 
ATOM     15  O   LIG    1        3.400   1.890  -0.837  0.00  0.00    -0.292 OA
ENDBRANCH   8  13
TORSDOF 1
