REMARK  Name = molecules/SFITWQDBYUMAPS-UHFFFAOYSA-N.pdb
REMARK                            x       y       z     vdW  Elec       q    Type
REMARK                         _______ _______ _______ _____ _____    ______ ____
ROOT
ATOM      1  C   LIG    1       -1.390   1.048   1.855  0.00  0.00    +0.086 C 
ATOM      2  C   LIG    1       -0.127   0.734   1.105  0.00  0.00    +0.114 A 
ATOM      3  N   LIG    1        1.062   1.201   1.532  0.00  0.00    -0.233 NA
ATOM      4  C   LIG    1        2.196   0.910   0.846  0.00  0.00    +0.078 A 
ATOM      5  C   LIG    1        3.419   1.392   1.288  0.00  0.00    +0.028 A 
ATOM      6  C   LIG    1        4.553   1.076   0.566  0.00  0.00    +0.002 A 
ATOM      7  C   LIG    1        4.437   0.300  -0.563  0.00  0.00    +0.001 A 
ATOM      8  C   LIG    1        3.220  -0.173  -0.994  0.00  0.00    +0.015 A 
ATOM      9  C   LIG    1        2.056   0.132  -0.279  0.00  0.00    +0.065 A 
ATOM     10  C   LIG    1        0.837  -0.349  -0.722  0.00  0.00    +0.266 A 
ATOM     11  O   LIG    1        0.756  -1.048  -1.744  0.00  0.00    -0.267 OA
ATOM     12  N   LIG    1       -0.264  -0.030  -0.001  0.00  0.00    -0.263 N 
ENDROOT
BRANCH  12  13
ATOM     13  C   LIG    1       -1.560  -0.489  -0.394  0.00  0.00    +0.069 A 
ATOM     14  C   LIG    1       -1.934  -1.817  -0.350  0.00  0.00    +0.065 A 
ATOM     15 CL   LIG    1       -0.751  -2.973   0.215  0.00  0.00    -0.081 Cl
ATOM     16  C   LIG    1       -3.184  -2.245  -0.731  0.00  0.00    +0.022 A 
ATOM     17  C   LIG    1       -4.098  -1.339  -1.169  0.00  0.00    +0.002 A 
ATOM     18  C   LIG    1       -3.779  -0.013  -1.232  0.00  0.00    +0.002 A 
ATOM     19  C   LIG    1       -2.522   0.396  -0.846  0.00  0.00    +0.028 A 
ENDBRANCH  12  13
TORSDOF 1
