REMARK  Name = molecules/SFKQVVDKFKYTNA-DZCXQCEKSA-N.pdb
REMARK                            x       y       z     vdW  Elec       q    Type
REMARK                         _______ _______ _______ _____ _____    ______ ____
ROOT
ATOM      1  C   LIG    1       -2.930   3.173   0.874  0.00  0.00    +0.148 C 
ATOM      2  C   LIG    1       -3.838   1.993   1.026  0.00  0.00    +0.231 C 
ATOM      3  O   LIG    1       -3.207   0.884   1.330  0.00  0.00    -0.274 OA
ATOM      4  N   LIG    1       -5.258   1.976   0.860  0.00  0.00    -0.302 N 
ATOM      5  H   LIG    1       -5.779   1.560   1.685  0.00  0.00    +0.150 HD
ATOM      6  C   LIG    1       -5.990   2.395  -0.274  0.00  0.00    +0.163 C 
ATOM      7  C   LIG    1       -5.914   1.522  -1.502  0.00  0.00    +0.234 C 
ATOM      8  N   LIG    1       -6.028   0.108  -1.530  0.00  0.00    -0.302 N 
ATOM      9  C   LIG    1       -5.405  -0.821  -0.544  0.00  0.00    +0.163 C 
ATOM     10  C   LIG    1       -3.967  -0.933  -1.108  0.00  0.00    +0.234 C 
ATOM     11  N   LIG    1       -2.834  -1.489  -0.562  0.00  0.00    -0.302 N 
ATOM     12  C   LIG    1       -2.763  -2.865   0.079  0.00  0.00    +0.159 C 
ATOM     13  C   LIG    1       -2.136  -2.746   1.370  0.00  0.00    +0.234 C 
ATOM     14  O   LIG    1       -2.980  -3.182   2.318  0.00  0.00    -0.274 OA
ATOM     15  N   LIG    1       -0.918  -2.346   1.806  0.00  0.00    -0.302 N 
ATOM     16  H   LIG    1       -1.008  -1.520   2.557  0.00  0.00    +0.150 HD
ATOM     17  C   LIG    1        0.473  -2.685   1.700  0.00  0.00    +0.168 C 
ATOM     18  C   LIG    1        1.022  -2.117   0.381  0.00  0.00    +0.234 C 
ATOM     19  O   LIG    1        1.872  -2.937  -0.156  0.00  0.00    -0.274 OA
ATOM     20  N   LIG    1        0.750  -0.978  -0.261  0.00  0.00    -0.302 N 
ATOM     21  C   LIG    1        0.773   0.450   0.010  0.00  0.00    +0.170 C 
ATOM     22  C   LIG    1        0.408   0.697   1.456  0.00  0.00    +0.112 C 
ATOM     23  S   LIG    1        0.744   2.427   1.826  0.00  0.00    -0.091 S 
ATOM     24  S   LIG    1       -0.312   3.703   0.521  0.00  0.00    -0.091 S 
ATOM     25  H   LIG    1        0.455  -1.125  -1.307  0.00  0.00    +0.150 HD
ATOM     26  H   LIG    1       -1.908  -0.951  -0.499  0.00  0.00    +0.150 HD
ATOM     27  O   LIG    1       -3.824  -0.434  -2.349  0.00  0.00    -0.274 OA
ATOM     28  H   LIG    1       -6.503  -0.333  -2.302  0.00  0.00    +0.150 HD
ATOM     29  O   LIG    1       -5.698   2.129  -2.646  0.00  0.00    -0.274 OA
ATOM     30  C   LIG    1       -1.840   2.934  -0.119  0.00  0.00    +0.109 C 
ENDROOT
BRANCH  21  31
ATOM     31  C   LIG    1        2.141   0.954  -0.119  0.00  0.00    +0.237 C 
ATOM     32  O   LIG    1        2.623   1.800   0.771  0.00  0.00    -0.274 OA
ATOM     33  N   LIG    1        3.066   0.694  -1.169  0.00  0.00    -0.288 N 
ATOM     34  C   LIG    1        4.158  -0.237  -1.056  0.00  0.00    +0.162 C 
ATOM     35  C   LIG    1        5.045  -0.039  -2.230  0.00  0.00    +0.033 C 
ATOM     36  C   LIG    1        4.656   1.354  -2.662  0.00  0.00    +0.021 C 
ATOM     37  C   LIG    1        3.121   1.297  -2.471  0.00  0.00    +0.109 C 
BRANCH  34  38
ATOM     38  C   LIG    1        4.869  -0.121   0.254  0.00  0.00    +0.234 C 
ATOM     39  O   LIG    1        4.203  -0.405   1.313  0.00  0.00    -0.274 OA
ATOM     40  N   LIG    1        6.234   0.156   0.300  0.00  0.00    -0.302 N 
ATOM     41  H   LIG    1        6.674   0.612  -0.552  0.00  0.00    +0.150 HD
BRANCH  40  42
ATOM     42  C   LIG    1        7.123   0.032   1.435  0.00  0.00    +0.159 C 
BRANCH  42  43
ATOM     43  C   LIG    1        8.008   1.095   1.723  0.00  0.00    +0.234 C 
ATOM     44  O   LIG    1        8.351   1.409   2.890  0.00  0.00    -0.274 OA
ATOM     45  N   LIG    1        8.617   1.775   0.613  0.00  0.00    -0.305 N 
ATOM     46  H   LIG    1        8.278   1.686  -0.340  0.00  0.00    +0.149 HD
BRANCH  45  47
ATOM     47  C   LIG    1        9.594   2.777   0.867  0.00  0.00    +0.199 C 
BRANCH  47  48
ATOM     48  C   LIG    1       10.323   3.313  -0.292  0.00  0.00    +0.228 C 
ATOM     49  N   LIG    1       11.598   3.923  -0.068  0.00  0.00    -0.328 N 
ATOM     50  H   LIG    1       12.156   3.378   0.665  0.00  0.00    +0.145 HD
ATOM     51  H   LIG    1       11.898   4.731  -0.577  0.00  0.00    +0.145 HD
ATOM     52  O   LIG    1        9.835   3.220  -1.440  0.00  0.00    -0.274 OA
ENDBRANCH  47  48
ENDBRANCH  45  47
ENDBRANCH  42  43
BRANCH  42  53
ATOM     53  C   LIG    1        7.564  -1.428   1.508  0.00  0.00    +0.032 C 
BRANCH  53  54
ATOM     54  C   LIG    1        8.289  -1.801   0.230  0.00  0.00    +0.003 C 
BRANCH  54  55
ATOM     55  C   LIG    1        9.764  -1.605   0.290  0.00  0.00    +0.015 C 
BRANCH  55  56
ATOM     56  C   LIG    1       10.393  -1.389  -1.062  0.00  0.00    +0.077 C 
BRANCH  56  57
ATOM     57  N   LIG    1        9.983   0.017  -1.455  0.00  0.00    -0.330 NA
ATOM     58  H   LIG    1       10.282   0.467  -0.531  0.00  0.00    +0.118 HD
ATOM     59  H   LIG    1        9.039   0.039  -1.696  0.00  0.00    +0.118 HD
ENDBRANCH  56  57
ENDBRANCH  55  56
ENDBRANCH  54  55
ENDBRANCH  53  54
ENDBRANCH  42  53
ENDBRANCH  40  42
ENDBRANCH  34  38
ENDBRANCH  21  31
BRANCH   1  60
ATOM     60  N   LIG    1       -2.222   3.177   2.196  0.00  0.00    -0.319 NA
ATOM     61  H   LIG    1       -3.023   2.980   2.877  0.00  0.00    +0.119 HD
ATOM     62  H   LIG    1       -1.855   4.122   2.386  0.00  0.00    +0.119 HD
ENDBRANCH   1  60
BRANCH  17  63
ATOM     63  C   LIG    1        0.853  -4.152   1.649  0.00  0.00    +0.127 C 
BRANCH  63  64
ATOM     64  C   LIG    1        1.150  -4.931   0.506  0.00  0.00    +0.213 C 
ATOM     65  O   LIG    1        1.997  -5.925   0.547  0.00  0.00    -0.276 OA
ATOM     66  N   LIG    1        0.637  -4.754  -0.845  0.00  0.00    -0.329 N 
ATOM     67  H   LIG    1       -0.237  -4.142  -0.762  0.00  0.00    +0.145 HD
ATOM     68  H   LIG    1        0.851  -4.970  -1.808  0.00  0.00    +0.145 HD
ENDBRANCH  63  64
ENDBRANCH  17  63
BRANCH   9  69
ATOM     69  C   LIG    1       -6.148  -2.141  -0.648  0.00  0.00    +0.067 C 
BRANCH  69  70
ATOM     70  C   LIG    1       -7.570  -1.787  -0.441  0.00  0.00    -0.045 A 
ATOM     71  C   LIG    1       -8.314  -1.865   0.705  0.00  0.00    +0.004 A 
ATOM     72  C   LIG    1       -9.613  -1.693   0.742  0.00  0.00    +0.000 A 
ATOM     73  C   LIG    1      -10.433  -1.460  -0.315  0.00  0.00    +0.000 A 
ATOM     74  C   LIG    1       -9.726  -1.472  -1.544  0.00  0.00    +0.000 A 
ATOM     75  C   LIG    1       -8.426  -1.595  -1.617  0.00  0.00    +0.004 A 
ENDBRANCH  69  70
ENDBRANCH   9  69
BRANCH   6  76
ATOM     76  C   LIG    1       -5.942   3.793  -0.676  0.00  0.00    +0.067 C 
BRANCH  76  77
ATOM     77  C   LIG    1       -6.617   4.795   0.195  0.00  0.00    -0.045 A 
ATOM     78  C   LIG    1       -5.981   6.028   0.429  0.00  0.00    +0.004 A 
ATOM     79  C   LIG    1       -6.800   7.050   0.784  0.00  0.00    +0.000 A 
ATOM     80  C   LIG    1       -8.068   7.098   0.949  0.00  0.00    +0.000 A 
ATOM     81  C   LIG    1       -8.839   5.801   0.798  0.00  0.00    +0.000 A 
ATOM     82  C   LIG    1       -7.928   4.737   0.407  0.00  0.00    +0.004 A 
ENDBRANCH  76  77
ENDBRANCH   6  76
BRANCH  12  83
ATOM     83  C   LIG    1       -2.229  -3.698  -1.007  0.00  0.00    +0.041 C 
BRANCH  83  84
ATOM     84  C   LIG    1       -1.963  -5.155  -0.707  0.00  0.00    +0.098 C 
BRANCH  84  85
ATOM     85  C   LIG    1       -2.753  -5.753   0.380  0.00  0.00    +0.211 C 
ATOM     86  O   LIG    1       -2.027  -6.305   1.387  0.00  0.00    -0.276 OA
ATOM     87  N   LIG    1       -4.103  -5.727   0.332  0.00  0.00    -0.329 N 
ATOM     88  H   LIG    1       -4.609  -5.677   1.197  0.00  0.00    +0.145 HD
ATOM     89  H   LIG    1       -4.501  -5.800  -0.666  0.00  0.00    +0.145 HD
ENDBRANCH  84  85
ENDBRANCH  83  84
ENDBRANCH  12  83
TORSDOF 21
