REMARK  Name = molecules/SGEGOXDYSFKCPT-UHFFFAOYSA-N.pdb
REMARK                            x       y       z     vdW  Elec       q    Type
REMARK                         _______ _______ _______ _____ _____    ______ ____
ROOT
ATOM      1  N   LIG    1       -0.281   0.729   0.256  0.00  0.00    -0.299 NA
ATOM      2  C   LIG    1        0.518   1.231   1.287  0.00  0.00    +0.103 C 
ATOM      3  C   LIG    1        1.722   1.991   0.775  0.00  0.00    +0.120 C 
ATOM      4  N   LIG    1        2.346   1.130  -0.203  0.00  0.00    -0.327 N 
ATOM      5  C   LIG    1        1.546   0.888  -1.379  0.00  0.00    +0.120 C 
ATOM      6  C   LIG    1        0.285   0.203  -0.907  0.00  0.00    +0.103 C 
ENDROOT
BRANCH   4   7
ATOM      7  C   LIG    1        3.625   0.575   0.001  0.00  0.00    +0.031 A 
ATOM      8  C   LIG    1        4.240   0.660   1.235  0.00  0.00    +0.027 A 
ATOM      9  C   LIG    1        5.494   0.118   1.475  0.00  0.00    +0.049 A 
ATOM     10  C   LIG    1        6.188  -0.540   0.467  0.00  0.00    +0.136 A 
ATOM     11  O   LIG    1        7.357  -1.134   0.408  0.00  0.00    -0.450 OA
ATOM     12  C   LIG    1        7.601  -1.627  -0.782  0.00  0.00    +0.190 A 
ATOM     13  C   LIG    1        6.485  -1.320  -1.548  0.00  0.00    +0.063 A 
ATOM     14  C   LIG    1        5.592  -0.634  -0.764  0.00  0.00    +0.023 A 
ATOM     15  C   LIG    1        4.339  -0.084  -0.974  0.00  0.00    +0.034 A 
BRANCH  12  16
ATOM     16  C   LIG    1        8.778  -2.351  -1.244  0.00  0.00    +0.277 C 
ATOM     17  N   LIG    1        9.855  -2.600  -0.366  0.00  0.00    -0.323 N 
ATOM     18  H   LIG    1        9.845  -3.388   0.309  0.00  0.00    +0.145 HD
ATOM     19  H   LIG    1       10.682  -1.975  -0.396  0.00  0.00    +0.145 HD
ATOM     20  O   LIG    1        8.833  -2.752  -2.421  0.00  0.00    -0.267 OA
ENDBRANCH  12  16
ENDBRANCH   4   7
BRANCH   1  21
ATOM     21  C   LIG    1       -1.497   0.058   0.617  0.00  0.00    +0.084 C 
BRANCH  21  22
ATOM     22  C   LIG    1       -2.523   1.003   1.208  0.00  0.00    +0.016 C 
BRANCH  22  23
ATOM     23  C   LIG    1       -2.951   2.063   0.281  0.00  0.00    +0.006 C 
BRANCH  23  24
ATOM     24  C   LIG    1       -3.717   1.678  -0.940  0.00  0.00    +0.037 C 
BRANCH  24  25
ATOM     25  C   LIG    1       -5.067   1.143  -0.727  0.00  0.00    -0.022 A 
ATOM     26  C   LIG    1       -5.565  -0.069  -0.387  0.00  0.00    +0.004 A 
ATOM     27  C   LIG    1       -4.984  -1.305  -0.138  0.00  0.00    +0.029 A 
ATOM     28  C   LIG    1       -5.718  -2.422   0.190  0.00  0.00    +0.052 A 
ATOM     29  C   LIG    1       -7.091  -2.341   0.283  0.00  0.00    +0.021 A 
ATOM     30  C   LIG    1       -7.703  -1.135   0.043  0.00  0.00    +0.027 A 
ATOM     31  C   LIG    1       -6.965  -0.019  -0.286  0.00  0.00    +0.047 A 
ATOM     32  N   LIG    1       -7.284   1.262  -0.578  0.00  0.00    -0.360 N 
ATOM     33  H   LIG    1       -8.277   1.589  -0.579  0.00  0.00    +0.165 HD
ATOM     34  C   LIG    1       -6.193   1.984  -0.845  0.00  0.00    +0.087 A 
BRANCH  28  35
ATOM     35  C   LIG    1       -5.095  -3.685   0.442  0.00  0.00    +0.099 C 
ATOM     36  N   LIG    1       -4.575  -4.697   0.635  0.00  0.00    -0.191 NA
ENDBRANCH  28  35
ENDBRANCH  24  25
ENDBRANCH  23  24
ENDBRANCH  22  23
ENDBRANCH  21  22
ENDBRANCH   1  21
TORSDOF 8
