REMARK  Name = molecules/SGOOQMRIPALTEL-UHFFFAOYSA-N.pdb
REMARK                            x       y       z     vdW  Elec       q    Type
REMARK                         _______ _______ _______ _____ _____    ______ ____
ROOT
ATOM      1  C   LIG    1       -1.344   0.848   0.980  0.00  0.00    +0.143 A 
ATOM      2  C   LIG    1       -2.736   0.663   0.958  0.00  0.00    +0.041 A 
ATOM      3  C   LIG    1       -3.531   1.378   1.814  0.00  0.00    +0.013 A 
ATOM      4  C   LIG    1       -4.904   1.177   1.773  0.00  0.00    +0.001 A 
ATOM      5  C   LIG    1       -5.446   0.271   0.881  0.00  0.00    +0.002 A 
ATOM      6  C   LIG    1       -4.662  -0.452   0.020  0.00  0.00    +0.026 A 
ATOM      7  C   LIG    1       -3.276  -0.233   0.079  0.00  0.00    +0.055 A 
ATOM      8  N   LIG    1       -2.483  -0.911  -0.737  0.00  0.00    -0.310 N 
ATOM      9  C   LIG    1       -1.125  -0.745  -0.729  0.00  0.00    +0.267 A 
ATOM     10  O   LIG    1       -0.462  -1.431  -1.526  0.00  0.00    -0.267 OA
ATOM     11  C   LIG    1       -3.102  -1.863  -1.667  0.00  0.00    +0.152 C 
ATOM     12  C   LIG    1       -0.508   0.146   0.135  0.00  0.00    +0.143 A 
ENDROOT
BRANCH  12  13
ATOM     13  C   LIG    1        0.911   0.247   0.225  0.00  0.00    +0.259 C 
ATOM     14  O   LIG    1        1.358   0.582   1.403  0.00  0.00    -0.269 OA
ATOM     15  N   LIG    1        1.929   0.059  -0.716  0.00  0.00    -0.270 N 
ATOM     16  C   LIG    1        1.812  -0.024  -2.144  0.00  0.00    +0.138 C 
BRANCH  15  17
ATOM     17  C   LIG    1        3.293   0.014  -0.214  0.00  0.00    +0.036 A 
ATOM     18  C   LIG    1        3.815  -1.228   0.051  0.00  0.00    +0.023 A 
ATOM     19  C   LIG    1        5.115  -1.368   0.535  0.00  0.00    +0.002 A 
ATOM     20  C   LIG    1        5.859  -0.232   0.739  0.00  0.00    +0.000 A 
ATOM     21  C   LIG    1        5.364   1.022   0.482  0.00  0.00    +0.002 A 
ATOM     22  C   LIG    1        4.061   1.114   0.000  0.00  0.00    +0.023 A 
ENDBRANCH  15  17
ENDBRANCH  12  13
BRANCH   1  23
ATOM     23  O   LIG    1       -0.880   1.759   1.876  0.00  0.00    -0.505 OA
ATOM     24  H   LIG    1        0.030   2.046   2.020  0.00  0.00    +0.292 HD
ENDBRANCH   1  23
TORSDOF 3
