REMARK  Name = molecules/SGTNSNPWRIOYBX-MHZLTWQESA-N.pdb
REMARK                            x       y       z     vdW  Elec       q    Type
REMARK                         _______ _______ _______ _____ _____    ______ ____
ROOT
ATOM      1  C   LIG    1       -1.715   0.579  -0.364  0.00  0.00    +0.028 C 
ENDROOT
BRANCH   1   2
ATOM      2  C   LIG    1       -2.482   0.897   0.836  0.00  0.00    +0.085 C 
BRANCH   2   3
ATOM      3  C   LIG    1       -3.856   0.226   0.802  0.00  0.00    -0.024 A 
ATOM      4  C   LIG    1       -4.989   0.900   1.190  0.00  0.00    +0.009 A 
ATOM      5  C   LIG    1       -6.244   0.326   1.168  0.00  0.00    +0.050 A 
ATOM      6  C   LIG    1       -6.423  -0.970   0.748  0.00  0.00    +0.162 A 
ATOM      7  C   LIG    1       -5.274  -1.659   0.353  0.00  0.00    +0.162 A 
ATOM      8  C   LIG    1       -4.011  -1.071   0.379  0.00  0.00    +0.054 A 
BRANCH   6   9
ATOM      9  O   LIG    1       -7.671  -1.573   0.713  0.00  0.00    -0.491 OA
ATOM     10  C   LIG    1       -8.808  -0.840   1.121  0.00  0.00    +0.277 C 
ENDBRANCH   6   9
BRANCH   7  11
ATOM     11  O   LIG    1       -5.485  -2.958  -0.063  0.00  0.00    -0.491 OA
ATOM     12  C   LIG    1       -4.531  -3.866  -0.542  0.00  0.00    +0.277 C 
ENDBRANCH   7  11
ENDBRANCH   2   3
BRANCH   2  13
ATOM     13  C   LIG    1       -1.924   0.929   2.173  0.00  0.00    +0.007 C 
ATOM     14  C   LIG    1       -3.007   1.077   3.259  0.00  0.00    +0.009 C 
ATOM     15  C   LIG    1       -0.857   1.905   2.526  0.00  0.00    +0.009 C 
ENDBRANCH   2  13
BRANCH   2  16
ATOM     16  C   LIG    1       -2.918   2.377   0.617  0.00  0.00    +0.074 C 
ATOM     17  N   LIG    1       -3.223   3.484   0.445  0.00  0.00    -0.196 NA
ENDBRANCH   2  16
ENDBRANCH   1   2
BRANCH   1  18
ATOM     18  C   LIG    1       -0.597   1.318  -0.927  0.00  0.00    +0.017 C 
BRANCH  18  19
ATOM     19  C   LIG    1        0.722   1.520  -0.369  0.00  0.00    +0.084 C 
BRANCH  19  20
ATOM     20  N   LIG    1        1.608   0.433  -0.120  0.00  0.00    -0.305 NA
ATOM     21  C   LIG    1        1.099  -0.753   0.422  0.00  0.00    +0.104 C 
BRANCH  20  22
ATOM     22  C   LIG    1        2.751   0.958   0.564  0.00  0.00    +0.088 C 
BRANCH  22  23
ATOM     23  C   LIG    1        3.904   0.084   0.808  0.00  0.00    +0.050 C 
BRANCH  23  24
ATOM     24  C   LIG    1        4.623  -0.405  -0.375  0.00  0.00    -0.042 A 
ATOM     25  C   LIG    1        5.703   0.381  -0.817  0.00  0.00    +0.053 A 
ATOM     26  C   LIG    1        6.433  -0.026  -1.885  0.00  0.00    +0.162 A 
ATOM     27  C   LIG    1        6.092  -1.221  -2.528  0.00  0.00    +0.161 A 
ATOM     28  C   LIG    1        5.039  -1.980  -2.095  0.00  0.00    +0.049 A 
ATOM     29  C   LIG    1        4.291  -1.569  -1.002  0.00  0.00    +0.007 A 
BRANCH  26  30
ATOM     30  O   LIG    1        7.531   0.709  -2.384  0.00  0.00    -0.491 OA
ATOM     31  C   LIG    1        7.860   1.910  -1.716  0.00  0.00    +0.277 C 
ENDBRANCH  26  30
BRANCH  27  32
ATOM     32  O   LIG    1        6.849  -1.601  -3.599  0.00  0.00    -0.491 OA
ATOM     33  C   LIG    1        6.602  -2.774  -4.300  0.00  0.00    +0.277 C 
ENDBRANCH  27  32
ENDBRANCH  23  24
ENDBRANCH  22  23
ENDBRANCH  20  22
ENDBRANCH  19  20
ENDBRANCH  18  19
ENDBRANCH   1  18
TORSDOF 14
