REMARK  Name = molecules/SGUAFYQXFOLMHL-ACJLOTCBSA-N.pdb
REMARK                            x       y       z     vdW  Elec       q    Type
REMARK                         _______ _______ _______ _____ _____    ______ ____
ROOT
ATOM      1  C   LIG    1        1.480  -1.736   0.708  0.00  0.00    +0.158 C 
ENDROOT
BRANCH   1   2
ATOM      2  C   LIG    1        2.711  -0.984   0.342  0.00  0.00    -0.017 A 
ATOM      3  C   LIG    1        2.874   0.363   0.560  0.00  0.00    +0.023 A 
ATOM      4  C   LIG    1        4.036   1.061   0.206  0.00  0.00    +0.078 A 
ATOM      5  C   LIG    1        5.064   0.355  -0.389  0.00  0.00    +0.129 A 
ATOM      6  C   LIG    1        4.929  -0.995  -0.619  0.00  0.00    +0.046 A 
ATOM      7  C   LIG    1        3.779  -1.656  -0.263  0.00  0.00    +0.010 A 
BRANCH   4   8
ATOM      8  C   LIG    1        4.166   2.483   0.454  0.00  0.00    +0.245 C 
ATOM      9  O   LIG    1        3.230   3.107   0.992  0.00  0.00    -0.270 OA
ATOM     10  N   LIG    1        5.345   3.150   0.086  0.00  0.00    -0.325 N 
ATOM     11  H   LIG    1        6.164   3.164   0.718  0.00  0.00    +0.145 HD
ATOM     12  H   LIG    1        5.405   3.635  -0.824  0.00  0.00    +0.145 HD
ENDBRANCH   4   8
BRANCH   5  13
ATOM     13  O   LIG    1        6.258   0.998  -0.767  0.00  0.00    -0.506 OA
ATOM     14  H   LIG    1        7.013   0.513  -1.196  0.00  0.00    +0.292 HD
ENDBRANCH   5  13
ENDBRANCH   1   2
BRANCH   1  15
ATOM     15  O   LIG    1        1.034  -1.388   1.978  0.00  0.00    -0.386 OA
ATOM     16  H   LIG    1        0.885  -0.416   2.026  0.00  0.00    +0.210 HD
ENDBRANCH   1  15
BRANCH   1  17
ATOM     17  C   LIG    1        0.415  -1.606  -0.345  0.00  0.00    +0.117 C 
BRANCH  17  18
ATOM     18  N   LIG    1       -0.738  -2.407  -0.166  0.00  0.00    -0.311 NA
ATOM     19  H   LIG    1       -0.561  -3.421  -0.301  0.00  0.00    +0.122 HD
BRANCH  18  20
ATOM     20  C   LIG    1       -1.601  -2.103   0.919  0.00  0.00    +0.051 C 
ATOM     21  C   LIG    1       -2.783  -3.092   0.884  0.00  0.00    +0.024 C 
BRANCH  20  22
ATOM     22  C   LIG    1       -2.204  -0.721   0.799  0.00  0.00    +0.023 C 
BRANCH  22  23
ATOM     23  C   LIG    1       -2.994  -0.644  -0.483  0.00  0.00    +0.036 C 
BRANCH  23  24
ATOM     24  C   LIG    1       -3.607   0.680  -0.653  0.00  0.00    -0.047 A 
ATOM     25  C   LIG    1       -4.885   0.906  -0.149  0.00  0.00    +0.003 A 
ATOM     26  C   LIG    1       -5.490   2.156  -0.298  0.00  0.00    +0.000 A 
ATOM     27  C   LIG    1       -4.818   3.172  -0.950  0.00  0.00    +0.000 A 
ATOM     28  C   LIG    1       -3.552   2.954  -1.451  0.00  0.00    +0.000 A 
ATOM     29  C   LIG    1       -2.977   1.720  -1.293  0.00  0.00    +0.003 A 
ENDBRANCH  23  24
ENDBRANCH  22  23
ENDBRANCH  20  22
ENDBRANCH  18  20
ENDBRANCH  17  18
ENDBRANCH   1  17
TORSDOF 10
