REMARK  Name = molecules/SGXXNSQHWDMGGP-UHFFFAOYSA-N.pdb
REMARK                            x       y       z     vdW  Elec       q    Type
REMARK                         _______ _______ _______ _____ _____    ______ ____
ROOT
ATOM      1  C   LIG    1        1.595  -0.345  -1.404  0.00  0.00    +0.113 C 
ENDROOT
BRANCH   1   2
ATOM      2  S   LIG    1        0.729  -1.580  -0.403  0.00  0.00    -0.151 S 
BRANCH   2   3
ATOM      3  C   LIG    1       -0.363  -0.729   0.759  0.00  0.00    +0.125 C 
BRANCH   3   6
ATOM      4  C   LIG    1       -3.541  -0.023  -0.951  0.00  0.00    +0.093 A 
ATOM      5  N   LIG    1       -2.592  -0.641  -0.268  0.00  0.00    -0.247 NA
ATOM      6  C   LIG    1       -1.473  -0.042  -0.019  0.00  0.00    +0.059 A 
ATOM      7  C   LIG    1       -1.323   1.242  -0.489  0.00  0.00    +0.071 A 
ATOM      8  S   LIG    1       -2.826   1.495  -1.267  0.00  0.00    -0.079 S 
BRANCH   4   9
ATOM      9  C   LIG    1       -4.898  -0.537  -1.339  0.00  0.00    +0.146 C 
BRANCH   9  10
ATOM     10  N   LIG    1       -5.881   0.066  -0.486  0.00  0.00    -0.302 NA
ATOM     11  C   LIG    1       -5.690  -0.220   0.901  0.00  0.00    +0.105 C 
ATOM     12  C   LIG    1       -7.227  -0.077  -0.940  0.00  0.00    +0.105 C 
ENDBRANCH   9  10
ENDBRANCH   4   9
ENDBRANCH   3   6
ENDBRANCH   2   3
ENDBRANCH   1   2
BRANCH   1  13
ATOM     13  C   LIG    1        2.559   0.435  -0.528  0.00  0.00    +0.233 C 
BRANCH  13  14
ATOM     14  N   LIG    1        3.539  -0.473   0.066  0.00  0.00    -0.236 N 
ATOM     15  H   LIG    1        3.505  -1.508  -0.103  0.00  0.00    +0.291 HD
BRANCH  14  16
ATOM     16  C   LIG    1        4.543   0.093   0.883  0.00  0.00    +0.278 C 
ATOM     17  C   LIG    1        4.381   0.171   2.187  0.00  0.00    +0.270 C 
BRANCH  17  18
ATOM     18  N   LIG    1        5.388   0.742   3.035  0.00  0.00    +0.057 N 
ATOM     19  O   LIG    1        6.275  -0.025   3.740  0.00  0.00    -0.126 OA
ATOM     20  O   LIG    1        5.445   1.980   3.122  0.00  0.00    -0.126 OA
ENDBRANCH  17  18
BRANCH  16  21
ATOM     21  N   LIG    1        5.728   0.573   0.276  0.00  0.00    -0.240 N 
ATOM     22  H   LIG    1        6.306   1.301   0.739  0.00  0.00    +0.291 HD
ATOM     23  C   LIG    1        6.143   0.056  -0.992  0.00  0.00    +0.273 C 
ENDBRANCH  16  21
ENDBRANCH  14  16
ENDBRANCH  13  14
ENDBRANCH   1  13
TORSDOF 10
