REMARK  Name = molecules/SHGAZHPCJJPHSC-ZVCIMWCZSA-N.pdb
REMARK                            x       y       z     vdW  Elec       q    Type
REMARK                         _______ _______ _______ _____ _____    ______ ____
ROOT
ATOM      1  C   LIG    1        1.472  -2.260   1.601  0.00  0.00    -0.072 C 
ATOM      2  C   LIG    1        1.746  -3.595   2.135  0.00  0.00    +0.039 C 
ATOM      3  C   LIG    1        2.299  -1.224   1.922  0.00  0.00    -0.019 C 
ENDROOT
BRANCH   1   4
ATOM      4  C   LIG    1        0.328  -1.933   0.721  0.00  0.00    +0.026 C 
BRANCH   4   5
ATOM      5  C   LIG    1       -0.590  -1.686   0.014  0.00  0.00    +0.009 C 
BRANCH   5   9
ATOM      6  C   LIG    1       -2.173   0.237  -0.653  0.00  0.00    -0.028 C 
ATOM      7  C   LIG    1       -2.882   0.300   0.681  0.00  0.00    +0.011 C 
ATOM      8  C   LIG    1       -0.897   1.115  -0.577  0.00  0.00    +0.011 C 
ATOM      9  C   LIG    1       -1.624  -1.170  -0.724  0.00  0.00    -0.008 C 
ATOM     10  C   LIG    1       -2.307  -2.048  -1.566  0.00  0.00    -0.019 C 
ATOM     11  C   LIG    1       -1.620  -3.299  -1.924  0.00  0.00    +0.012 C 
ATOM     12  C   LIG    1       -3.505  -1.581  -2.292  0.00  0.00    +0.008 C 
ATOM     13  C   LIG    1       -3.000  -0.265  -2.969  0.00  0.00    +0.001 C 
ATOM     14  C   LIG    1       -2.889   0.732  -1.822  0.00  0.00    +0.007 C 
ENDBRANCH   5   9
ENDBRANCH   4   5
ENDBRANCH   1   4
BRANCH   3  15
ATOM     15  C   LIG    1        2.041   0.032   1.367  0.00  0.00    +0.045 C 
BRANCH  15  16
ATOM     16  C   LIG    1        3.093   1.109   1.576  0.00  0.00    -0.019 C 
ATOM     17  C   LIG    1        2.727   2.087   1.006  0.00  0.00    -0.061 C 
ATOM     18  C   LIG    1        4.405   2.941   1.060  0.00  0.00    +0.039 C 
BRANCH  17  19
ATOM     19  C   LIG    1        2.313   3.221   0.350  0.00  0.00    +0.141 C 
BRANCH  19  20
ATOM     20  C   LIG    1        1.894   4.291  -0.284  0.00  0.00    +0.313 C 
ATOM     21  O   LIG    1        0.665   4.239  -0.852  0.00  0.00    -0.250 OA
BRANCH  20  22
ATOM     22  O   LIG    1        2.400   5.594  -0.546  0.00  0.00    -0.480 OA
ATOM     23  H   LIG    1        3.436   5.568  -0.704  0.00  0.00    +0.295 HD
ENDBRANCH  20  22
ENDBRANCH  19  20
ENDBRANCH  17  19
ENDBRANCH  15  16
ENDBRANCH   3  15
TORSDOF 8
