REMARK  Name = molecules/SHGAZHPCJJPHSC-XFYACQKRSA-N.pdb
REMARK                            x       y       z     vdW  Elec       q    Type
REMARK                         _______ _______ _______ _____ _____    ______ ____
ROOT
ATOM      1  C   LIG    1        0.858  -0.639   2.064  0.00  0.00    +0.044 C 
ATOM      2  C   LIG    1        0.840  -0.276   0.646  0.00  0.00    -0.050 C 
ATOM      3  C   LIG    1        1.925  -0.178  -0.101  0.00  0.00    +0.003 C 
ENDROOT
BRANCH   2   4
ATOM      4  C   LIG    1       -0.461   0.002  -0.004  0.00  0.00    +0.003 C 
ATOM      5  C   LIG    1       -1.558  -0.081   0.706  0.00  0.00    +0.004 C 
BRANCH   5   6
ATOM      6  C   LIG    1       -2.914   0.165   0.208  0.00  0.00    -0.043 C 
ATOM      7  C   LIG    1       -3.904   0.013   1.094  0.00  0.00    -0.069 C 
ATOM      8  C   LIG    1       -3.631  -0.375   2.487  0.00  0.00    +0.039 C 
ATOM      9  C   LIG    1       -5.332   0.195   0.707  0.00  0.00    +0.031 C 
ATOM     10  C   LIG    1       -5.447  -0.105  -0.799  0.00  0.00    +0.005 C 
ATOM     11  C   LIG    1       -4.545   0.844  -1.496  0.00  0.00    +0.011 C 
ATOM     12  C   LIG    1       -3.097   0.576  -1.190  0.00  0.00    -0.010 C 
ATOM     13  C   LIG    1       -2.338   1.886  -1.483  0.00  0.00    +0.016 C 
ATOM     14  C   LIG    1       -2.599  -0.499  -2.164  0.00  0.00    +0.016 C 
ENDBRANCH   5   6
ENDBRANCH   2   4
BRANCH   3  15
ATOM     15  C   LIG    1        3.237  -0.430   0.450  0.00  0.00    +0.001 C 
ATOM     16  C   LIG    1        4.322  -0.321  -0.347  0.00  0.00    +0.003 C 
BRANCH  16  17
ATOM     17  C   LIG    1        5.600  -0.581   0.246  0.00  0.00    -0.044 C 
ATOM     18  C   LIG    1        5.715  -0.960   1.704  0.00  0.00    +0.044 C 
ATOM     19  C   LIG    1        6.719  -0.511  -0.406  0.00  0.00    +0.094 C 
BRANCH  19  20
ATOM     20  C   LIG    1        6.785  -0.165  -1.798  0.00  0.00    +0.330 C 
ATOM     21  O   LIG    1        5.864   0.112  -2.579  0.00  0.00    -0.246 OA
BRANCH  20  22
ATOM     22  O   LIG    1        8.077  -0.129  -2.377  0.00  0.00    -0.478 OA
ATOM     23  H   LIG    1        8.783  -0.789  -2.093  0.00  0.00    +0.295 HD
ENDBRANCH  20  22
ENDBRANCH  19  20
ENDBRANCH  16  17
ENDBRANCH   3  15
TORSDOF 6
