REMARK  Name = molecules/SHGAZHPCJJPHSC-YCNIQYBTSA-N.pdb
REMARK                            x       y       z     vdW  Elec       q    Type
REMARK                         _______ _______ _______ _____ _____    ______ ____
ROOT
ATOM      1  C   LIG    1       -0.817  -0.056  -0.385  0.00  0.00    -0.050 C 
ATOM      2  C   LIG    1       -1.782   0.100   0.516  0.00  0.00    +0.003 C 
ATOM      3  C   LIG    1       -1.234  -0.185  -1.773  0.00  0.00    +0.044 C 
ENDROOT
BRANCH   1   5
ATOM      4  C   LIG    1        1.613  -0.236  -0.698  0.00  0.00    +0.004 C 
ATOM      5  C   LIG    1        0.586  -0.087   0.097  0.00  0.00    +0.003 C 
BRANCH   4  14
ATOM      6  C   LIG    1        3.531  -0.158   0.994  0.00  0.00    -0.010 C 
ATOM      7  C   LIG    1        3.196  -1.469   1.731  0.00  0.00    +0.016 C 
ATOM      8  C   LIG    1        2.900   1.017   1.710  0.00  0.00    +0.016 C 
ATOM      9  C   LIG    1        5.030   0.070   1.104  0.00  0.00    +0.011 C 
ATOM     10  C   LIG    1        5.701   0.452  -0.165  0.00  0.00    +0.005 C 
ATOM     11  C   LIG    1        5.327  -0.520  -1.274  0.00  0.00    +0.031 C 
ATOM     12  C   LIG    1        3.848  -0.448  -1.383  0.00  0.00    -0.069 C 
ATOM     13  C   LIG    1        3.269  -0.571  -2.755  0.00  0.00    +0.039 C 
ATOM     14  C   LIG    1        3.018  -0.285  -0.372  0.00  0.00    -0.043 C 
ENDBRANCH   4  14
ENDBRANCH   1   5
BRANCH   2  15
ATOM     15  C   LIG    1       -3.208   0.143   0.118  0.00  0.00    +0.001 C 
ATOM     16  C   LIG    1       -4.163   0.292   0.983  0.00  0.00    +0.003 C 
BRANCH  16  17
ATOM     17  C   LIG    1       -5.565   0.339   0.639  0.00  0.00    -0.044 C 
ATOM     18  C   LIG    1       -6.481   0.494   1.592  0.00  0.00    +0.094 C 
ATOM     19  C   LIG    1       -6.078   0.228  -0.743  0.00  0.00    +0.044 C 
BRANCH  18  20
ATOM     20  C   LIG    1       -7.904   0.555   1.377  0.00  0.00    +0.330 C 
ATOM     21  O   LIG    1       -8.435   0.469   0.254  0.00  0.00    -0.246 OA
BRANCH  20  22
ATOM     22  O   LIG    1       -8.755   0.719   2.458  0.00  0.00    -0.478 OA
ATOM     23  H   LIG    1       -9.521   1.375   2.403  0.00  0.00    +0.295 HD
ENDBRANCH  20  22
ENDBRANCH  18  20
ENDBRANCH  16  17
ENDBRANCH   2  15
TORSDOF 6
