REMARK  Name = molecules/SHHKQEUPHAENFK-SECBINFHSA-N.pdb
REMARK                            x       y       z     vdW  Elec       q    Type
REMARK                         _______ _______ _______ _____ _____    ______ ____
ROOT
ATOM      1  C   LIG    1        0.284  -0.418  -0.092  0.00  0.00    +0.058 C 
ATOM      2  C   LIG    1       -0.432  -1.463   0.334  0.00  0.00    +0.087 C 
ATOM      3  C   LIG    1       -1.871  -1.251   0.625  0.00  0.00    +0.205 C 
ATOM      4  O   LIG    1       -2.548  -2.252   1.027  0.00  0.00    -0.286 OA
ATOM      5  C   LIG    1       -2.538   0.012   0.478  0.00  0.00    +0.023 C 
ATOM      6  C   LIG    1       -3.997   0.150   0.792  0.00  0.00    +0.050 C 
ATOM      7  C   LIG    1       -1.831   1.038   0.062  0.00  0.00    +0.084 C 
ATOM      8  C   LIG    1       -0.386   0.856  -0.240  0.00  0.00    +0.208 C 
ATOM      9  O   LIG    1        0.185   1.908  -0.634  0.00  0.00    -0.285 OA
ENDROOT
BRANCH   7  10
ATOM     10  N   LIG    1       -2.457   2.303  -0.093  0.00  0.00    -0.324 N 
ATOM     11  C   LIG    1       -2.858   3.641   0.353  0.00  0.00    +0.124 C 
ATOM     12  C   LIG    1       -3.228   3.167  -0.999  0.00  0.00    +0.124 C 
ENDBRANCH   7  10
BRANCH   2  13
ATOM     13  N   LIG    1        0.083  -2.764   0.551  0.00  0.00    -0.324 N 
ATOM     14  C   LIG    1        0.821  -3.672   1.421  0.00  0.00    +0.124 C 
ATOM     15  C   LIG    1        0.258  -4.186   0.146  0.00  0.00    +0.124 C 
ENDBRANCH   2  13
BRANCH   1  16
ATOM     16  C   LIG    1        1.719  -0.563  -0.395  0.00  0.00    +0.191 C 
BRANCH  16  17
ATOM     17  O   LIG    1        1.960  -1.939  -0.556  0.00  0.00    -0.372 OA
ATOM     18  C   LIG    1        2.421  -2.216  -1.843  0.00  0.00    +0.195 C 
ENDBRANCH  16  17
BRANCH  16  19
ATOM     19  C   LIG    1        2.669  -0.022   0.598  0.00  0.00    +0.270 C 
BRANCH  19  20
ATOM     20  O   LIG    1        2.730   1.340   0.841  0.00  0.00    -0.448 OA
BRANCH  20  21
ATOM     21  C   LIG    1        3.160   2.286  -0.104  0.00  0.00    +0.398 C 
ATOM     22  N   LIG    1        3.210   3.675   0.179  0.00  0.00    -0.295 N 
ATOM     23  H   LIG    1        3.609   4.104   1.039  0.00  0.00    +0.148 HD
ATOM     24  H   LIG    1        2.814   4.324  -0.531  0.00  0.00    +0.148 HD
ATOM     25  O   LIG    1        3.499   1.801  -1.226  0.00  0.00    -0.227 OA
ENDBRANCH  20  21
ENDBRANCH  19  20
ENDBRANCH  16  19
ENDBRANCH   1  16
TORSDOF 7
