REMARK  Name = molecules/SIQPXVQCUCHWDI-UHFFFAOYSA-N.pdb
REMARK                            x       y       z     vdW  Elec       q    Type
REMARK                         _______ _______ _______ _____ _____    ______ ____
ROOT
ATOM      1  N   LIG    1       -0.181   0.009  -0.719  0.00  0.00    -0.278 N 
ATOM      2  C   LIG    1       -1.069  -0.538   0.158  0.00  0.00    +0.148 A 
ATOM      3  N   LIG    1       -1.101  -1.751   0.762  0.00  0.00    -0.330 N 
ATOM      4  C   LIG    1       -2.200  -1.779   1.536  0.00  0.00    +0.198 A 
ATOM      5  N   LIG    1       -2.866  -0.618   1.441  0.00  0.00    -0.229 NA
ATOM      6  H   LIG    1       -0.377  -2.488   0.614  0.00  0.00    +0.168 HD
ATOM      7  C   LIG    1       -2.171   0.172   0.581  0.00  0.00    +0.170 A 
ATOM      8  C   LIG    1       -2.365   1.450   0.103  0.00  0.00    +0.282 A 
ATOM      9  O   LIG    1       -3.362   2.124   0.471  0.00  0.00    -0.265 OA
ATOM     10  N   LIG    1       -1.483   1.980  -0.762  0.00  0.00    -0.273 N 
ATOM     11  H   LIG    1       -1.603   2.947  -1.141  0.00  0.00    +0.173 HD
ATOM     12  C   LIG    1       -0.400   1.256  -1.165  0.00  0.00    +0.331 A 
ATOM     13  O   LIG    1        0.423   1.742  -1.968  0.00  0.00    -0.246 OA
ENDROOT
BRANCH   1  14
ATOM     14  C   LIG    1        0.938  -0.768  -1.123  0.00  0.00    +0.128 C 
BRANCH  14  15
ATOM     15  C   LIG    1        2.157  -0.644  -0.284  0.00  0.00    +0.018 C 
ATOM     16  C   LIG    1        2.689   0.782  -0.235  0.00  0.00    +0.005 C 
ENDBRANCH  14  15
ENDBRANCH   1  14
TORSDOF 2
