REMARK  Name = molecules/SJDACOMXKWHBOW-UHFFFAOYSA-N.pdb
REMARK                            x       y       z     vdW  Elec       q    Type
REMARK                         _______ _______ _______ _____ _____    ______ ____
ROOT
ATOM      1  O   LIG    1        1.185   0.066  -2.885  0.00  0.00    -0.274 OA
ATOM      2  C   LIG    1        0.623   0.719  -1.942  0.00  0.00    +0.237 C 
ATOM      3  C   LIG    1        0.152   0.289  -0.645  0.00  0.00    +0.124 C 
ATOM      4  C   LIG    1       -0.436   1.492  -0.027  0.00  0.00    -0.003 A 
ATOM      5  C   LIG    1       -1.069   1.726   1.196  0.00  0.00    +0.007 A 
ATOM      6  C   LIG    1       -1.539   2.967   1.559  0.00  0.00    +0.000 A 
ATOM      7  C   LIG    1       -1.385   4.021   0.694  0.00  0.00    +0.002 A 
ATOM      8  C   LIG    1       -0.764   3.790  -0.506  0.00  0.00    +0.023 A 
ATOM      9  C   LIG    1       -0.277   2.536  -0.900  0.00  0.00    +0.038 A 
ATOM     10  N   LIG    1        0.371   2.093  -2.085  0.00  0.00    -0.284 N 
ATOM     11  H   LIG    1        0.597   2.737  -2.899  0.00  0.00    +0.155 HD
ENDROOT
BRANCH   3  12
ATOM     12  C   LIG    1        1.334  -0.221   0.120  0.00  0.00    -0.024 A 
ATOM     13  C   LIG    1        1.726   0.238   1.345  0.00  0.00    +0.009 A 
ATOM     14  C   LIG    1        2.841  -0.292   1.983  0.00  0.00    +0.046 A 
ATOM     15  C   LIG    1        3.579  -1.291   1.399  0.00  0.00    +0.117 A 
ATOM     16  C   LIG    1        3.195  -1.764   0.161  0.00  0.00    +0.046 A 
ATOM     17  C   LIG    1        2.083  -1.219  -0.450  0.00  0.00    +0.009 A 
BRANCH  15  18
ATOM     18  O   LIG    1        4.710  -1.826   2.050  0.00  0.00    -0.507 OA
ATOM     19  H   LIG    1        5.637  -1.414   1.897  0.00  0.00    +0.292 HD
ENDBRANCH  15  18
ENDBRANCH   3  12
BRANCH   3  20
ATOM     20  C   LIG    1       -0.883  -0.770  -0.683  0.00  0.00    -0.024 A 
ATOM     21  C   LIG    1       -1.100  -1.469   0.477  0.00  0.00    +0.009 A 
ATOM     22  C   LIG    1       -2.052  -2.491   0.574  0.00  0.00    +0.046 A 
ATOM     23  C   LIG    1       -2.784  -2.785  -0.556  0.00  0.00    +0.117 A 
ATOM     24  C   LIG    1       -2.597  -2.108  -1.740  0.00  0.00    +0.046 A 
ATOM     25  C   LIG    1       -1.640  -1.106  -1.774  0.00  0.00    +0.009 A 
BRANCH  23  26
ATOM     26  O   LIG    1       -3.730  -3.804  -0.453  0.00  0.00    -0.507 OA
ATOM     27  H   LIG    1       -4.670  -3.515  -0.169  0.00  0.00    +0.292 HD
ENDBRANCH  23  26
ENDBRANCH   3  20
TORSDOF 4
