REMARK  Name = molecules/SKIVFJLNDNKQPD-UHFFFAOYSA-N.pdb
REMARK                            x       y       z     vdW  Elec       q    Type
REMARK                         _______ _______ _______ _____ _____    ______ ____
ROOT
ATOM      1  C   LIG    1       -0.519   0.765  -0.079  0.00  0.00    +0.109 A 
ATOM      2  C   LIG    1       -0.925   0.400   1.185  0.00  0.00    +0.030 A 
ATOM      3  C   LIG    1       -2.157  -0.196   1.433  0.00  0.00    +0.024 A 
ATOM      4  C   LIG    1       -3.000  -0.427   0.367  0.00  0.00    +0.025 A 
ATOM      5  C   LIG    1       -2.598  -0.063  -0.901  0.00  0.00    +0.024 A 
ATOM      6  C   LIG    1       -1.375   0.526  -1.131  0.00  0.00    +0.030 A 
ENDROOT
BRANCH   1   7
ATOM      7  S   LIG    1        1.021   1.511  -0.406  0.00  0.00    +0.074 S 
ATOM      8  O   LIG    1        1.361   2.409   0.749  0.00  0.00    -0.150 OA
ATOM      9  O   LIG    1        0.841   2.412  -1.613  0.00  0.00    -0.150 OA
BRANCH   7  10
ATOM     10  N   LIG    1        2.255   0.364  -0.731  0.00  0.00    -0.186 N 
ATOM     11  C   LIG    1        3.076  -0.080   0.330  0.00  0.00    +0.229 C 
ATOM     12  O   LIG    1        2.919   0.352   1.522  0.00  0.00    -0.275 OA
ATOM     13  C   LIG    1        4.144  -1.073   0.049  0.00  0.00    +0.111 C 
ATOM     14  H   LIG    1        2.424  -0.017  -1.677  0.00  0.00    +0.177 HD
ENDBRANCH   7  10
ENDBRANCH   1   7
BRANCH   4  15
ATOM     15  N   LIG    1       -4.269  -1.035   0.586  0.00  0.00    -0.358 N 
ATOM     16  H   LIG    1       -4.664  -1.127   1.546  0.00  0.00    +0.142 HD
ATOM     17  H   LIG    1       -4.793  -1.384  -0.224  0.00  0.00    +0.142 HD
ENDBRANCH   4  15
TORSDOF 3
