REMARK  Name = molecules/SKKLOUVUUNMCJE-FQSMHNGLSA-N.pdb
REMARK                            x       y       z     vdW  Elec       q    Type
REMARK                         _______ _______ _______ _____ _____    ______ ____
ROOT
ATOM      1  C   LIG    1        0.987   0.055  -0.969  0.00  0.00    +0.169 C 
ATOM      2  C   LIG    1       -0.045   0.073   0.087  0.00  0.00    +0.175 C 
ATOM      3  C   LIG    1       -1.411   0.532  -0.358  0.00  0.00    +0.169 C 
ATOM      4  C   LIG    1       -1.182   1.743  -1.239  0.00  0.00    +0.084 C 
ATOM      5  C   LIG    1       -0.615   1.208  -2.534  0.00  0.00    +0.042 C 
ATOM      6  C   LIG    1        0.523   0.284  -2.360  0.00  0.00    +0.084 C 
ENDROOT
BRANCH   6   7
ATOM      7  N   LIG    1        0.229  -0.989  -3.029  0.00  0.00    -0.325 NA
ATOM      8  H   LIG    1        1.026  -1.642  -2.768  0.00  0.00    +0.119 HD
ATOM      9  H   LIG    1        0.326  -0.882  -4.075  0.00  0.00    +0.119 HD
ENDBRANCH   6   7
BRANCH   4  10
ATOM     10  N   LIG    1       -2.363   2.498  -1.499  0.00  0.00    -0.325 NA
ATOM     11  H   LIG    1       -2.319   3.401  -0.979  0.00  0.00    +0.119 HD
ATOM     12  H   LIG    1       -2.567   2.674  -2.487  0.00  0.00    +0.119 HD
ENDBRANCH   4  10
BRANCH   2  13
ATOM     13  O   LIG    1       -0.211  -1.180   0.717  0.00  0.00    -0.387 OA
ATOM     14  H   LIG    1        0.597  -1.417   1.237  0.00  0.00    +0.210 HD
ENDBRANCH   2  13
BRANCH   3  15
ATOM     15  O   LIG    1       -2.170   0.824   0.770  0.00  0.00    -0.341 OA
BRANCH  15  16
ATOM     16  C   LIG    1       -3.328   0.032   0.851  0.00  0.00    +0.281 C 
ATOM     17  O   LIG    1       -3.256  -0.714   2.025  0.00  0.00    -0.341 OA
ATOM     18  C   LIG    1       -4.344  -1.578   2.119  0.00  0.00    +0.177 C 
ATOM     19  C   LIG    1       -5.667  -0.896   2.097  0.00  0.00    +0.165 C 
ATOM     20  C   LIG    1       -5.651   0.535   1.674  0.00  0.00    +0.116 C 
ATOM     21  C   LIG    1       -4.510   0.937   0.802  0.00  0.00    +0.189 C 
BRANCH  20  22
ATOM     22  N   LIG    1       -6.936   0.942   1.088  0.00  0.00    -0.323 NA
ATOM     23  H   LIG    1       -7.712   0.818   1.762  0.00  0.00    +0.119 HD
ATOM     24  H   LIG    1       -7.104   0.293   0.291  0.00  0.00    +0.119 HD
ENDBRANCH  20  22
BRANCH  19  25
ATOM     25  O   LIG    1       -6.247  -0.983   3.373  0.00  0.00    -0.388 OA
ATOM     26  H   LIG    1       -6.340  -1.931   3.645  0.00  0.00    +0.210 HD
ENDBRANCH  19  25
BRANCH  21  27
ATOM     27  O   LIG    1       -4.161   2.260   1.073  0.00  0.00    -0.385 OA
ATOM     28  H   LIG    1       -3.420   2.228   1.734  0.00  0.00    +0.210 HD
ENDBRANCH  21  27
BRANCH  18  29
ATOM     29  C   LIG    1       -4.255  -2.689   1.069  0.00  0.00    +0.190 C 
BRANCH  29  30
ATOM     30  O   LIG    1       -3.089  -3.379   1.302  0.00  0.00    -0.392 OA
ATOM     31  H   LIG    1       -2.759  -3.867   0.509  0.00  0.00    +0.210 HD
ENDBRANCH  29  30
ENDBRANCH  18  29
ENDBRANCH  15  16
ENDBRANCH   3  15
BRANCH   1  32
ATOM     32  O   LIG    1        2.026   0.948  -0.655  0.00  0.00    -0.342 OA
BRANCH  32  33
ATOM     33  C   LIG    1        3.231   0.326  -0.436  0.00  0.00    +0.270 C 
ATOM     34  C   LIG    1        3.654   0.614   0.986  0.00  0.00    +0.139 C 
ATOM     35  C   LIG    1        5.161   0.614   1.115  0.00  0.00    +0.167 C 
ATOM     36  C   LIG    1        5.692  -0.415   0.150  0.00  0.00    +0.175 C 
ATOM     37  C   LIG    1        5.353  -0.007  -1.262  0.00  0.00    +0.166 C 
ATOM     38  O   LIG    1        4.194   0.721  -1.366  0.00  0.00    -0.343 OA
BRANCH  34  39
ATOM     39  N   LIG    1        3.097   1.875   1.403  0.00  0.00    -0.321 NA
ATOM     40  H   LIG    1        2.426   1.701   2.177  0.00  0.00    +0.119 HD
ATOM     41  H   LIG    1        3.830   2.582   1.641  0.00  0.00    +0.119 HD
ENDBRANCH  34  39
BRANCH  36  42
ATOM     42  O   LIG    1        7.085  -0.429   0.284  0.00  0.00    -0.387 OA
ATOM     43  H   LIG    1        7.412   0.280   0.877  0.00  0.00    +0.210 HD
ENDBRANCH  36  42
BRANCH  35  44
ATOM     44  O   LIG    1        5.575   0.357   2.413  0.00  0.00    -0.387 OA
ATOM     45  H   LIG    1        5.672   1.224   2.914  0.00  0.00    +0.210 HD
ENDBRANCH  35  44
BRANCH  37  46
ATOM     46  C   LIG    1        5.269  -1.265  -2.128  0.00  0.00    +0.112 C 
BRANCH  46  47
ATOM     47  N   LIG    1        6.467  -2.048  -2.039  0.00  0.00    -0.328 NA
ATOM     48  H   LIG    1        7.317  -1.592  -2.388  0.00  0.00    +0.118 HD
ATOM     49  H   LIG    1        6.306  -2.946  -2.522  0.00  0.00    +0.118 HD
ENDBRANCH  46  47
ENDBRANCH  37  46
ENDBRANCH  32  33
ENDBRANCH   1  32
TORSDOF 17
