REMARK  Name = molecules/SKTFQHRVFFOHTQ-UHFFFAOYSA-N.pdb
REMARK                            x       y       z     vdW  Elec       q    Type
REMARK                         _______ _______ _______ _____ _____    ______ ____
ROOT
ATOM      1  O   LIG    1       -1.701   2.248  -0.750  0.00  0.00    -0.265 OA
ATOM      2  C   LIG    1       -1.034   1.250  -0.420  0.00  0.00    +0.284 A 
ATOM      3  N   LIG    1       -1.695   0.132  -0.072  0.00  0.00    -0.262 N 
ATOM      4  C   LIG    1       -0.924  -0.918   0.276  0.00  0.00    +0.333 A 
ATOM      5  O   LIG    1       -1.574  -1.968   0.603  0.00  0.00    -0.246 OA
ATOM      6  N   LIG    1        0.418  -0.887   0.287  0.00  0.00    -0.281 N 
ATOM      7  C   LIG    1        1.169  -2.052   0.672  0.00  0.00    +0.155 C 
ATOM      8  C   LIG    1        1.077   0.227  -0.060  0.00  0.00    +0.148 A 
ATOM      9  N   LIG    1        2.401   0.552  -0.144  0.00  0.00    -0.319 N 
ATOM     10  H   LIG    1        3.186  -0.086   0.072  0.00  0.00    +0.169 HD
ATOM     11  C   LIG    1        2.495   1.829  -0.552  0.00  0.00    +0.177 A 
ATOM     12  N   LIG    1        1.244   2.291  -0.719  0.00  0.00    -0.215 NA
ATOM     13 BR   LIG    1        4.140   2.788  -0.834  0.00  0.00    -0.008 Br
ATOM     14  C   LIG    1       -3.151   0.066  -0.073  0.00  0.00    +0.157 C 
ATOM     15  C   LIG    1        0.342   1.334  -0.426  0.00  0.00    +0.172 A 
ENDROOT
TORSDOF 0
