REMARK  Name = molecules/SKYSRIRYMSLOIN-OAHLLOKOSA-N.pdb
REMARK                            x       y       z     vdW  Elec       q    Type
REMARK                         _______ _______ _______ _____ _____    ______ ____
ROOT
ATOM      1  C   LIG    1       -1.389  -0.093   1.173  0.00  0.00    +0.159 C 
ENDROOT
BRANCH   1   2
ATOM      2  C   LIG    1       -1.384   1.245   0.570  0.00  0.00    -0.031 A 
ATOM      3  C   LIG    1       -2.383   2.131   0.905  0.00  0.00    +0.004 A 
ATOM      4  C   LIG    1       -2.367   3.389   0.344  0.00  0.00    +0.000 A 
ATOM      5  C   LIG    1       -1.396   3.799  -0.538  0.00  0.00    +0.000 A 
ATOM      6  C   LIG    1       -0.389   2.928  -0.885  0.00  0.00    +0.000 A 
ATOM      7  C   LIG    1       -0.408   1.661  -0.317  0.00  0.00    +0.004 A 
ENDBRANCH   1   2
BRANCH   1   8
ATOM      8  C   LIG    1       -2.001  -1.169   0.320  0.00  0.00    +0.083 C 
ATOM      9  C   LIG    1       -3.343  -0.851  -0.238  0.00  0.00    +0.036 C 
ATOM     10  C   LIG    1       -3.593  -2.008  -1.183  0.00  0.00    +0.003 C 
ATOM     11  C   LIG    1       -2.231  -2.329  -1.756  0.00  0.00    +0.003 C 
ATOM     12  C   LIG    1       -1.217  -1.577  -0.875  0.00  0.00    +0.036 C 
BRANCH   8  13
ATOM     13  O   LIG    1       -2.160  -2.310   1.141  0.00  0.00    -0.387 OA
ATOM     14  H   LIG    1       -2.399  -1.988   2.046  0.00  0.00    +0.210 HD
ENDBRANCH   8  13
ENDBRANCH   1   8
BRANCH   1  15
ATOM     15  C   LIG    1       -0.080  -0.525   1.697  0.00  0.00    +0.317 C 
ATOM     16  O   LIG    1        0.118  -0.821   2.926  0.00  0.00    -0.250 OA
BRANCH  15  17
ATOM     17  O   LIG    1        1.048  -0.645   0.887  0.00  0.00    -0.463 OA
BRANCH  17  18
ATOM     18  C   LIG    1        2.300  -1.059   1.395  0.00  0.00    +0.247 C 
BRANCH  18  19
ATOM     19  C   LIG    1        3.301  -1.083   0.264  0.00  0.00    +0.125 C 
BRANCH  19  20
ATOM     20  N   LIG    1        3.446   0.233  -0.333  0.00  0.00    -0.305 NA
ATOM     21  C   LIG    1        3.985   1.177   0.633  0.00  0.00    +0.104 C 
ATOM     22  C   LIG    1        4.421   0.130  -1.408  0.00  0.00    +0.104 C 
ENDBRANCH  19  20
ENDBRANCH  18  19
ENDBRANCH  17  18
ENDBRANCH  15  17
ENDBRANCH   1  15
TORSDOF 8
