REMARK  Name = molecules/SKZKKFZAGNVIMN-UHFFFAOYSA-N.pdb
REMARK                            x       y       z     vdW  Elec       q    Type
REMARK                         _______ _______ _______ _____ _____    ______ ____
ROOT
ATOM      1  C   LIG    1       -0.406  -0.307  -0.347  0.00  0.00    +0.078 A 
ATOM      2  C   LIG    1        0.159   0.556   0.554  0.00  0.00    +0.129 A 
ATOM      3  C   LIG    1        1.515   0.622   0.798  0.00  0.00    +0.046 A 
ATOM      4  C   LIG    1        2.322  -0.239   0.080  0.00  0.00    +0.004 A 
ATOM      5  C   LIG    1        1.821  -1.126  -0.836  0.00  0.00    +0.001 A 
ATOM      6  C   LIG    1        0.446  -1.147  -1.039  0.00  0.00    +0.017 A 
ENDROOT
BRANCH   1  10
ATOM      7  N   LIG    1       -2.652   0.520   0.146  0.00  0.00    -0.325 N 
ATOM      8  H   LIG    1       -3.261   0.160   0.891  0.00  0.00    +0.145 HD
ATOM      9  H   LIG    1       -2.613   1.526  -0.063  0.00  0.00    +0.145 HD
ATOM     10  C   LIG    1       -1.858  -0.372  -0.602  0.00  0.00    +0.245 C 
ATOM     11  O   LIG    1       -2.339  -1.176  -1.437  0.00  0.00    -0.270 OA
ENDBRANCH   1  10
BRANCH   2  12
ATOM     12  O   LIG    1       -0.667   1.405   1.257  0.00  0.00    -0.506 OA
ATOM     13  H   LIG    1       -0.348   2.069   1.936  0.00  0.00    +0.292 HD
ENDBRANCH   2  12
TORSDOF 2
