REMARK  Name = molecules/SLFGIOIONGJGRT-AWEZNQCLSA-N.pdb
REMARK                            x       y       z     vdW  Elec       q    Type
REMARK                         _______ _______ _______ _____ _____    ______ ____
ROOT
ATOM      1  N   LIG    1       -1.107  -0.220   0.284  0.00  0.00    -0.301 N 
ATOM      2  C   LIG    1       -1.690  -1.492   0.563  0.00  0.00    +0.048 A 
ATOM      3  C   LIG    1       -0.946  -2.503   1.182  0.00  0.00    +0.024 A 
ATOM      4  C   LIG    1       -1.476  -3.744   1.480  0.00  0.00    +0.002 A 
ATOM      5  C   LIG    1       -2.777  -4.049   1.179  0.00  0.00    +0.001 A 
ATOM      6  C   LIG    1       -3.513  -3.041   0.564  0.00  0.00    +0.017 A 
ATOM      7  C   LIG    1       -2.991  -1.825   0.273  0.00  0.00    +0.034 A 
ATOM      8  S   LIG    1       -4.055  -0.646  -0.498  0.00  0.00    -0.090 S 
ATOM      9  C   LIG    1       -3.108   0.847  -0.731  0.00  0.00    +0.016 C 
ATOM     10  C   LIG    1       -3.735   1.925  -1.322  0.00  0.00    +0.063 C 
ATOM     11  C   LIG    1       -3.072   3.108  -1.548  0.00  0.00    -0.002 C 
ATOM     12  C   LIG    1       -1.757   3.167  -1.159  0.00  0.00    +0.036 C 
ATOM     13  C   LIG    1       -1.144   2.081  -0.569  0.00  0.00    +0.088 C 
ATOM     14  C   LIG    1       -1.795   0.866  -0.327  0.00  0.00    +0.030 C 
ENDROOT
BRANCH  12  15
ATOM     15  C   LIG    1       -1.019   4.376  -1.371  0.00  0.00    +0.095 C 
ATOM     16  N   LIG    1       -0.409   5.346  -1.530  0.00  0.00    -0.191 NA
ENDBRANCH  12  15
BRANCH   1  17
ATOM     17  C   LIG    1        0.294  -0.088   0.649  0.00  0.00    +0.115 C 
BRANCH  17  19
ATOM     18  C   LIG    1        1.108  -0.062  -1.707  0.00  0.00    +0.010 C 
ATOM     19  C   LIG    1        1.220  -0.729  -0.319  0.00  0.00    +0.018 C 
BRANCH  19  20
ATOM     20  C   LIG    1        2.644  -0.704   0.113  0.00  0.00    +0.088 C 
BRANCH  20  21
ATOM     21  N   LIG    1        3.296   0.535   0.259  0.00  0.00    -0.308 NA
ATOM     22  C   LIG    1        2.931   1.371   1.353  0.00  0.00    +0.104 C 
ATOM     23  C   LIG    1        4.747   0.407   0.162  0.00  0.00    +0.104 C 
ENDBRANCH  20  21
ENDBRANCH  19  20
ENDBRANCH  17  19
ENDBRANCH   1  17
TORSDOF 5
