REMARK  Name = molecules/SLVMESMUVMCQIY-YHAMSUFESA-N.pdb
REMARK                            x       y       z     vdW  Elec       q    Type
REMARK                         _______ _______ _______ _____ _____    ______ ____
ROOT
ATOM      1  N   LIG    1        1.070  -1.380   0.703  0.00  0.00    -0.313 N 
ATOM      2  C   LIG    1        0.582  -2.718   0.733  0.00  0.00    +0.115 C 
ATOM      3  C   LIG    1       -0.128  -3.207   1.819  0.00  0.00    +0.007 C 
ATOM      4  C   LIG    1       -0.506  -4.528   1.853  0.00  0.00    -0.002 C 
ATOM      5  C   LIG    1       -0.196  -5.400   0.825  0.00  0.00    +0.001 C 
ATOM      6  C   LIG    1        0.504  -4.933  -0.249  0.00  0.00    +0.013 C 
ATOM      7  C   LIG    1        0.883  -3.610  -0.286  0.00  0.00    +0.020 C 
ATOM      8  S   LIG    1        1.778  -3.109  -1.746  0.00  0.00    -0.089 S 
ATOM      9  C   LIG    1        2.349  -1.461  -1.419  0.00  0.00    +0.034 A 
ATOM     10  C   LIG    1        3.204  -0.887  -2.287  0.00  0.00    +0.018 A 
ATOM     11  C   LIG    1        3.702   0.388  -2.144  0.00  0.00    +0.017 A 
ATOM     12  C   LIG    1        3.277   1.082  -1.038  0.00  0.00    +0.028 A 
ATOM     13  C   LIG    1        2.402   0.499  -0.145  0.00  0.00    +0.040 A 
ATOM     14  C   LIG    1        1.894  -0.804  -0.294  0.00  0.00    +0.046 A 
ENDROOT
BRANCH  12  15
ATOM     15  S   LIG    1        3.889   2.725  -0.809  0.00  0.00    -0.015 S 
ATOM     16  O   LIG    1        3.799   3.045   0.693  0.00  0.00    -0.157 OA
ATOM     17  C   LIG    1        2.744   3.845  -1.639  0.00  0.00    +0.112 C 
ENDBRANCH  12  15
BRANCH   1  18
ATOM     18  C   LIG    1        0.523  -0.518   1.742  0.00  0.00    +0.108 C 
BRANCH  18  19
ATOM     19  C   LIG    1       -0.950  -0.249   1.594  0.00  0.00    +0.038 C 
BRANCH  19  21
ATOM     20  C   LIG    1       -0.956   1.893   0.225  0.00  0.00    +0.019 C 
ATOM     21  C   LIG    1       -1.423   0.483   0.403  0.00  0.00    +0.058 C 
ATOM     22  N   LIG    1       -2.881   0.496   0.454  0.00  0.00    -0.302 NA
ATOM     23  C   LIG    1       -3.413   0.952   1.697  0.00  0.00    +0.105 C 
ATOM     24  C   LIG    1       -3.465   1.055  -0.721  0.00  0.00    +0.084 C 
ATOM     25  C   LIG    1       -2.913   2.388  -1.100  0.00  0.00    +0.015 C 
ATOM     26  C   LIG    1       -1.386   2.279  -1.205  0.00  0.00    +0.003 C 
ENDBRANCH  19  21
ENDBRANCH  18  19
ENDBRANCH   1  18
TORSDOF 4
