REMARK  Name = molecules/SLWGJZPKHAXZQL-UHFFFAOYSA-N.pdb
REMARK                            x       y       z     vdW  Elec       q    Type
REMARK                         _______ _______ _______ _____ _____    ______ ____
ROOT
ATOM      1  C   LIG    1       -0.139   0.075   0.111  0.00  0.00    +0.112 C 
ATOM      2  C   LIG    1       -0.490  -0.520  -1.256  0.00  0.00    +0.056 C 
ENDROOT
BRANCH   1   4
ATOM      3  C   LIG    1       -1.673   2.014  -0.294  0.00  0.00    +0.008 C 
ATOM      4  C   LIG    1       -0.283   1.540   0.053  0.00  0.00    +0.044 C 
ENDBRANCH   1   4
BRANCH   1   5
ATOM      5  C   LIG    1       -1.049  -0.605   1.101  0.00  0.00    +0.044 C 
ATOM      6  C   LIG    1       -0.841  -2.105   1.101  0.00  0.00    +0.008 C 
ENDBRANCH   1   5
BRANCH   1   7
ATOM      7  O   LIG    1        1.178  -0.298   0.416  0.00  0.00    -0.444 OA
BRANCH   7   8
ATOM      8  C   LIG    1        2.238   0.038  -0.402  0.00  0.00    +0.398 C 
ATOM      9  N   LIG    1        3.582  -0.346  -0.075  0.00  0.00    -0.295 N 
ATOM     10  H   LIG    1        4.260   0.430   0.042  0.00  0.00    +0.148 HD
ATOM     11  H   LIG    1        3.804  -1.337   0.024  0.00  0.00    +0.148 HD
ATOM     12  O   LIG    1        2.093   0.688  -1.462  0.00  0.00    -0.227 OA
ENDBRANCH   7   8
ENDBRANCH   1   7
TORSDOF 4
