REMARK  Name = molecules/SLXKOJJOQWFEFD-UHFFFAOYSA-N.pdb
REMARK                            x       y       z     vdW  Elec       q    Type
REMARK                         _______ _______ _______ _____ _____    ______ ____
ROOT
ATOM      1  C   LIG    1        0.005  -0.425  -0.679  0.00  0.00    +0.002 C 
ENDROOT
BRANCH   1   2
ATOM      2  C   LIG    1        1.507  -0.451  -0.637  0.00  0.00    +0.015 C 
BRANCH   2   3
ATOM      3  C   LIG    1        2.105   0.680   0.146  0.00  0.00    +0.077 C 
BRANCH   3   4
ATOM      4  N   LIG    1        3.561   0.487   0.075  0.00  0.00    -0.330 NA
ATOM      5  H   LIG    1        4.079   1.146   0.659  0.00  0.00    +0.118 HD
ATOM      6  H   LIG    1        3.789  -0.504   0.168  0.00  0.00    +0.118 HD
ENDBRANCH   3   4
ENDBRANCH   2   3
ENDBRANCH   1   2
BRANCH   1   7
ATOM      7  C   LIG    1       -0.638  -0.505   0.654  0.00  0.00    +0.011 C 
BRANCH   7   8
ATOM      8  C   LIG    1       -2.133  -0.477   0.552  0.00  0.00    +0.120 C 
BRANCH   8   9
ATOM      9  C   LIG    1       -2.695   0.737  -0.051  0.00  0.00    +0.305 C 
ATOM     10  O   LIG    1       -2.005   1.712  -0.430  0.00  0.00    -0.251 OA
BRANCH   9  11
ATOM     11  O   LIG    1       -4.060   0.813  -0.212  0.00  0.00    -0.481 OA
ATOM     12  H   LIG    1       -4.586   0.306  -0.918  0.00  0.00    +0.295 HD
ENDBRANCH   9  11
ENDBRANCH   8   9
ENDBRANCH   7   8
ENDBRANCH   1   7
TORSDOF 7
