REMARK  Name = molecules/SMNOERSLNYGGOU-ZDUSSCGKSA-N.pdb
REMARK                            x       y       z     vdW  Elec       q    Type
REMARK                         _______ _______ _______ _____ _____    ______ ____
ROOT
ATOM      1  C   LIG    1        1.509  -1.282   0.252  0.00  0.00    +0.107 A 
ATOM      2  C   LIG    1        2.729  -0.761   0.609  0.00  0.00    +0.058 A 
ATOM      3  C   LIG    1        3.760  -0.639  -0.325  0.00  0.00    +0.125 A 
ATOM      4  C   LIG    1        3.556  -1.044  -1.624  0.00  0.00    +0.067 A 
ATOM      5  C   LIG    1        2.337  -1.568  -1.997  0.00  0.00    +0.024 A 
ATOM      6 CL   LIG    1        4.881  -0.874  -2.775  0.00  0.00    -0.082 Cl
ATOM      7  C   LIG    1        1.328  -1.679  -1.048  0.00  0.00    +0.030 A 
ENDROOT
BRANCH   1   8
ATOM      8  S   LIG    1        0.191  -1.456   1.377  0.00  0.00    +0.061 S 
ATOM      9  O   LIG    1        0.855  -1.697   2.740  0.00  0.00    -0.153 OA
ATOM     10  O   LIG    1       -0.562  -2.708   1.037  0.00  0.00    -0.153 OA
BRANCH   8  11
ATOM     11  N   LIG    1       -0.821  -0.107   1.452  0.00  0.00    -0.177 NA
ATOM     12  C   LIG    1       -0.324   0.982   2.235  0.00  0.00    +0.131 C 
BRANCH  11  13
ATOM     13  C   LIG    1       -1.507   0.279   0.278  0.00  0.00    +0.143 C 
BRANCH  13  14
ATOM     14  C   LIG    1       -2.925  -0.118   0.125  0.00  0.00    +0.081 C 
ATOM     15  O   LIG    1       -3.750   0.366   1.140  0.00  0.00    -0.372 OA
ATOM     16  C   LIG    1       -3.913   1.725   0.904  0.00  0.00    +0.160 C 
ATOM     17  C   LIG    1       -3.956   1.894  -0.599  0.00  0.00    +0.031 C 
ATOM     18  C   LIG    1       -3.147  -1.582  -0.078  0.00  0.00    +0.043 C 
ATOM     19  C   LIG    1       -3.434   0.603  -1.144  0.00  0.00    +0.038 C 
ENDBRANCH  13  14
ENDBRANCH  11  13
ENDBRANCH   8  11
ENDBRANCH   1   8
BRANCH   3  20
ATOM     20  S   LIG    1        5.311   0.037   0.189  0.00  0.00    +0.057 S 
ATOM     21  O   LIG    1        5.339   0.251   1.653  0.00  0.00    -0.153 OA
ATOM     22  O   LIG    1        6.379  -0.989  -0.155  0.00  0.00    -0.153 OA
BRANCH  20  23
ATOM     23  N   LIG    1        5.647   1.442  -0.719  0.00  0.00    -0.203 NA
ATOM     24  H   LIG    1        6.272   2.116  -0.268  0.00  0.00    +0.144 HD
ATOM     25  H   LIG    1        4.770   1.845  -1.104  0.00  0.00    +0.144 HD
ENDBRANCH  20  23
ENDBRANCH   3  20
TORSDOF 6
