REMARK  Name = molecules/SMOBCLHAZXOKDQ-ZJUUUORDSA-N.pdb
REMARK                            x       y       z     vdW  Elec       q    Type
REMARK                         _______ _______ _______ _____ _____    ______ ____
ROOT
ATOM      1  C   LIG    1        0.729   0.591   0.473  0.00  0.00    +0.164 C 
ATOM      2  N   LIG    1        1.888   0.083   1.079  0.00  0.00    -0.270 N 
ATOM      3  C   LIG    1        3.120   0.452   1.600  0.00  0.00    +0.331 C 
ATOM      4  O   LIG    1        3.389   1.273   2.503  0.00  0.00    -0.250 OA
ATOM      5  N   LIG    1        4.106  -0.353   0.837  0.00  0.00    -0.132 N 
ATOM      6  C   LIG    1        3.220  -1.131  -0.063  0.00  0.00    +0.127 C 
ATOM      7  C   LIG    1        2.594  -0.192  -1.042  0.00  0.00    +0.029 C 
ATOM      8  C   LIG    1        2.070  -1.397   0.976  0.00  0.00    +0.135 C 
ATOM      9  C   LIG    1        1.101   0.040  -0.987  0.00  0.00    +0.034 C 
ENDROOT
BRANCH   1  11
ATOM     10  N   LIG    1       -1.686   0.496   0.023  0.00  0.00    -0.311 N 
ATOM     11  C   LIG    1       -0.551  -0.019   0.762  0.00  0.00    +0.234 C 
ATOM     12  O   LIG    1       -0.775  -0.946   1.583  0.00  0.00    -0.274 OA
ATOM     13  H   LIG    1       -1.587   1.273  -0.684  0.00  0.00    +0.149 HD
BRANCH  10  16
ATOM     14  C   LIG    1       -5.302   0.737   0.722  0.00  0.00    +0.082 C 
ATOM     15  C   LIG    1       -3.889   1.236   0.496  0.00  0.00    +0.037 C 
ATOM     16  C   LIG    1       -3.031   0.000   0.188  0.00  0.00    +0.075 C 
ATOM     17  C   LIG    1       -3.552  -0.540  -1.143  0.00  0.00    +0.037 C 
ATOM     18  C   LIG    1       -4.989  -0.941  -0.941  0.00  0.00    +0.082 C 
ATOM     19  N   LIG    1       -5.794   0.209  -0.539  0.00  0.00    -0.316 NA
ATOM     20  H   LIG    1       -6.751  -0.161  -0.366  0.00  0.00    +0.122 HD
ENDBRANCH  10  16
ENDBRANCH   1  11
BRANCH   5  21
ATOM     21  O   LIG    1        5.439  -0.340   0.947  0.00  0.00    -0.096 OA
BRANCH  21  22
ATOM     22  S   LIG    1        6.153   0.513  -0.318  0.00  0.00    +0.227 S 
ATOM     23  O   LIG    1        5.797   1.976  -0.271  0.00  0.00    -0.116 OA
ATOM     24  O   LIG    1        5.789  -0.112  -1.647  0.00  0.00    -0.116 OA
BRANCH  22  25
ATOM     25  O   LIG    1        7.817   0.394  -0.146  0.00  0.00    -0.230 OA
ATOM     26  H   LIG    1        8.104  -0.006   0.683  0.00  0.00    +0.247 HD
ENDBRANCH  22  25
ENDBRANCH  21  22
ENDBRANCH   5  21
TORSDOF 5
