REMARK  Name = molecules/SMQYOVYWPWASGU-UHFFFAOYSA-N.pdb
REMARK                            x       y       z     vdW  Elec       q    Type
REMARK                         _______ _______ _______ _____ _____    ______ ____
ROOT
ATOM      1  C   LIG    1       -0.071   1.491  -1.920  0.00  0.00    +0.010 C 
ENDROOT
BRANCH   1   2
ATOM      2  C   LIG    1       -1.367   2.243  -1.631  0.00  0.00    +0.096 C 
BRANCH   2   5
ATOM      3  N   LIG    1       -3.550   1.869  -0.375  0.00  0.00    -0.284 N 
ATOM      4  H   LIG    1       -3.882   2.822  -0.659  0.00  0.00    +0.155 HD
ATOM      5  C   LIG    1       -2.285   1.456  -0.807  0.00  0.00    +0.217 C 
ATOM      6  O   LIG    1       -1.905   0.292  -0.447  0.00  0.00    -0.275 OA
BRANCH   3   7
ATOM      7  C   LIG    1       -4.424   1.095   0.422  0.00  0.00    +0.061 A 
ATOM      8  C   LIG    1       -4.432   1.119   1.792  0.00  0.00    +0.051 A 
ATOM      9  I   LIG    1       -3.063   2.382   2.763  0.00  0.00    -0.041 I 
ATOM     10  C   LIG    1       -5.295   0.354   2.540  0.00  0.00    +0.088 A 
ATOM     11  C   LIG    1       -6.184  -0.467   1.835  0.00  0.00    +0.042 A 
ATOM     12  I   LIG    1       -7.523  -1.549   3.047  0.00  0.00    -0.042 I 
ATOM     13  C   LIG    1       -6.241  -0.552   0.486  0.00  0.00    +0.065 A 
ATOM     14  C   LIG    1       -5.321   0.266  -0.206  0.00  0.00    +0.049 A 
ATOM     15  I   LIG    1       -5.391   0.136  -2.323  0.00  0.00    -0.041 I 
BRANCH  13  16
ATOM     16  C   LIG    1       -7.176  -1.369  -0.249  0.00  0.00    +0.246 C 
ATOM     17  N   LIG    1       -7.854  -2.518   0.091  0.00  0.00    -0.314 N 
ATOM     18  H   LIG    1       -7.766  -3.017   0.977  0.00  0.00    +0.149 HD
ATOM     19  C   LIG    1       -8.777  -3.159  -0.868  0.00  0.00    +0.128 C 
ATOM     20  O   LIG    1       -7.406  -0.924  -1.458  0.00  0.00    -0.270 OA
ENDBRANCH  13  16
BRANCH  10  21
ATOM     21  C   LIG    1       -5.276   0.406   4.000  0.00  0.00    +0.339 C 
ATOM     22  O   LIG    1       -4.479   1.141   4.600  0.00  0.00    -0.245 OA
BRANCH  21  23
ATOM     23  O   LIG    1       -6.152  -0.371   4.731  0.00  0.00    -0.477 OA
ATOM     24  H   LIG    1       -5.815  -1.062   5.394  0.00  0.00    +0.295 HD
ENDBRANCH  21  23
ENDBRANCH  10  21
ENDBRANCH   3   7
ENDBRANCH   2   5
ENDBRANCH   1   2
BRANCH   1  25
ATOM     25  C   LIG    1        0.802   2.377  -2.769  0.00  0.00    +0.010 C 
BRANCH  25  26
ATOM     26  C   LIG    1        2.119   1.774  -3.142  0.00  0.00    +0.096 C 
BRANCH  26  27
ATOM     27  C   LIG    1        2.959   1.468  -1.967  0.00  0.00    +0.217 C 
ATOM     28  O   LIG    1        2.604   1.750  -0.800  0.00  0.00    -0.275 OA
ATOM     29  N   LIG    1        4.215   0.830  -2.173  0.00  0.00    -0.284 N 
ATOM     30  H   LIG    1        4.550   0.576  -3.146  0.00  0.00    +0.155 HD
BRANCH  29  31
ATOM     31  C   LIG    1        5.041   0.524  -1.065  0.00  0.00    +0.061 A 
ATOM     32  C   LIG    1        4.927  -0.708  -0.408  0.00  0.00    +0.049 A 
ATOM     33  C   LIG    1        5.709  -1.029   0.658  0.00  0.00    +0.065 A 
ATOM     34  C   LIG    1        6.628  -0.046   1.051  0.00  0.00    +0.042 A 
ATOM     35  I   LIG    1        7.880  -0.451   2.692  0.00  0.00    -0.042 I 
ATOM     36  C   LIG    1        6.766   1.168   0.434  0.00  0.00    +0.088 A 
ATOM     37  I   LIG    1        3.431  -2.000  -1.103  0.00  0.00    -0.041 I 
ATOM     38  C   LIG    1        5.955   1.450  -0.643  0.00  0.00    +0.051 A 
ATOM     39  I   LIG    1        6.111   3.279  -1.631  0.00  0.00    -0.041 I 
BRANCH  33  40
ATOM     40  C   LIG    1        5.713  -2.287   1.367  0.00  0.00    +0.246 C 
ATOM     41  O   LIG    1        6.186  -2.271   2.585  0.00  0.00    -0.270 OA
ATOM     42  N   LIG    1        5.280  -3.534   0.919  0.00  0.00    -0.314 N 
ATOM     43  C   LIG    1        5.368  -4.704   1.821  0.00  0.00    +0.128 C 
ATOM     44  H   LIG    1        4.910  -3.760  -0.013  0.00  0.00    +0.149 HD
ENDBRANCH  33  40
BRANCH  36  45
ATOM     45  C   LIG    1        7.736   2.152   0.884  0.00  0.00    +0.339 C 
ATOM     46  O   LIG    1        8.491   1.903   1.877  0.00  0.00    -0.245 OA
BRANCH  45  47
ATOM     47  O   LIG    1        7.838   3.353   0.235  0.00  0.00    -0.477 OA
ATOM     48  H   LIG    1        8.100   4.178   0.753  0.00  0.00    +0.295 HD
ENDBRANCH  45  47
ENDBRANCH  36  45
ENDBRANCH  29  31
ENDBRANCH  26  27
ENDBRANCH  25  26
ENDBRANCH   1  25
TORSDOF 13
