REMARK  Name = molecules/SMTZFNFIKUPEJC-UHFFFAOYSA-N.pdb
REMARK                            x       y       z     vdW  Elec       q    Type
REMARK                         _______ _______ _______ _____ _____    ______ ____
ROOT
ATOM      1  C   LIG    1       -2.870  -1.534   0.420  0.00  0.00    -0.030 A 
ATOM      2  C   LIG    1       -1.543  -1.209   0.248  0.00  0.00    +0.050 A 
ATOM      3  C   LIG    1       -0.689  -2.026  -0.496  0.00  0.00    +0.121 A 
ATOM      4  C   LIG    1       -1.244  -3.162  -1.041  0.00  0.00    +0.045 A 
ATOM      5  C   LIG    1       -2.567  -3.517  -0.889  0.00  0.00    +0.004 A 
ATOM      6  C   LIG    1       -3.389  -2.682  -0.142  0.00  0.00    +0.005 A 
ENDROOT
BRANCH   1   7
ATOM      7  C   LIG    1       -3.728  -0.644   1.206  0.00  0.00    +0.119 C 
BRANCH   7   8
ATOM      8  N   LIG    1       -4.526   0.159   0.339  0.00  0.00    -0.298 NA
ATOM      9  C   LIG    1       -5.659   0.678   1.019  0.00  0.00    +0.085 C 
ATOM     10  C   LIG    1       -6.631   1.403   0.118  0.00  0.00    +0.015 C 
ATOM     11  C   LIG    1       -5.917   2.236  -0.923  0.00  0.00    +0.002 C 
ATOM     12  C   LIG    1       -4.449   2.397  -0.508  0.00  0.00    +0.015 C 
ATOM     13  C   LIG    1       -3.845   1.009  -0.563  0.00  0.00    +0.085 C 
ENDBRANCH   7   8
ENDBRANCH   1   7
BRANCH   3  14
ATOM     14  O   LIG    1        0.652  -1.719  -0.683  0.00  0.00    -0.492 OA
BRANCH  14  15
ATOM     15  C   LIG    1        1.154  -0.537  -0.094  0.00  0.00    +0.230 C 
BRANCH  15  16
ATOM     16  C   LIG    1        2.630  -0.405  -0.427  0.00  0.00    +0.060 C 
BRANCH  16  17
ATOM     17  C   LIG    1        3.366  -1.587   0.109  0.00  0.00    +0.107 C 
BRANCH  17  18
ATOM     18  N   LIG    1        4.772  -1.542  -0.169  0.00  0.00    -0.312 N 
ATOM     19  C   LIG    1        5.595  -0.499   0.314  0.00  0.00    +0.251 C 
ATOM     20  O   LIG    1        5.079   0.407   1.004  0.00  0.00    -0.272 OA
ATOM     21  H   LIG    1        5.205  -2.321  -0.757  0.00  0.00    +0.149 HD
BRANCH  19  22
ATOM     22  C   LIG    1        7.056  -0.445   0.026  0.00  0.00    +0.327 C 
BRANCH  22  23
ATOM     23  O   LIG    1        7.613   0.688   0.625  0.00  0.00    -0.455 OA
BRANCH  23  24
ATOM     24  C   LIG    1        7.243   1.982   0.356  0.00  0.00    +0.304 C 
ATOM     25  C   LIG    1        7.911   3.100   1.059  0.00  0.00    +0.136 C 
ATOM     26  O   LIG    1        6.348   2.199  -0.476  0.00  0.00    -0.251 OA
ENDBRANCH  23  24
ENDBRANCH  22  23
ENDBRANCH  19  22
ENDBRANCH  17  18
ENDBRANCH  16  17
ENDBRANCH  15  16
ENDBRANCH  14  15
ENDBRANCH   3  14
TORSDOF 10
