REMARK  Name = molecules/SNBUBQHDYVFSQF-HIFRSBDPSA-N.pdb
REMARK                            x       y       z     vdW  Elec       q    Type
REMARK                         _______ _______ _______ _____ _____    ______ ____
ROOT
ATOM      1  C   LIG    1        2.178  -0.445  -0.426  0.00  0.00    +0.242 C 
ATOM      2  C   LIG    1        0.928  -1.212  -0.153  0.00  0.00    +0.199 C 
ATOM      3  S   LIG    1        0.394  -1.139   1.587  0.00  0.00    -0.128 S 
ATOM      4  C   LIG    1       -1.379  -1.133   1.521  0.00  0.00    +0.104 C 
ATOM      5  C   LIG    1       -1.970  -0.730   0.201  0.00  0.00    -0.021 C 
ATOM      6  C   LIG    1       -1.313  -0.297  -0.833  0.00  0.00    +0.123 C 
ATOM      7  N   LIG    1        0.138  -0.163  -0.801  0.00  0.00    -0.244 N 
ATOM      8  C   LIG    1        1.312   0.568  -1.121  0.00  0.00    +0.275 C 
ATOM      9  O   LIG    1        1.573   1.638  -1.737  0.00  0.00    -0.270 OA
ENDROOT
BRANCH   1  10
ATOM     10  N   LIG    1        2.837   0.056   0.769  0.00  0.00    -0.277 N 
ATOM     11  H   LIG    1        2.435  -0.131   1.704  0.00  0.00    +0.152 HD
ATOM     12  C   LIG    1        4.036   0.806   0.682  0.00  0.00    +0.225 C 
ATOM     13  O   LIG    1        4.519   1.030  -0.453  0.00  0.00    -0.275 OA
BRANCH  12  14
ATOM     14  C   LIG    1        4.740   1.334   1.871  0.00  0.00    +0.165 C 
BRANCH  14  15
ATOM     15  S   LIG    1        6.226   2.240   1.373  0.00  0.00    -0.137 S 
BRANCH  15  16
ATOM     16  C   LIG    1        7.378   1.038   0.642  0.00  0.00    +0.187 C 
BRANCH  16  17
ATOM     17  C   LIG    1        7.811   0.113   1.695  0.00  0.00    +0.073 C 
ATOM     18  N   LIG    1        8.139  -0.619   2.526  0.00  0.00    -0.196 NA
ENDBRANCH  16  17
ENDBRANCH  15  16
ENDBRANCH  14  15
ENDBRANCH  12  14
ENDBRANCH   1  10
BRANCH   6  19
ATOM     19  C   LIG    1       -1.892   0.147  -2.092  0.00  0.00    +0.351 C 
ATOM     20  O   LIG    1       -3.115   0.148  -2.270  0.00  0.00    -0.244 OA
BRANCH  19  21
ATOM     21  O   LIG    1       -1.147   0.599  -3.180  0.00  0.00    -0.476 OA
ATOM     22  H   LIG    1       -0.866  -0.057  -3.911  0.00  0.00    +0.295 HD
ENDBRANCH  19  21
ENDBRANCH   6  19
BRANCH   1  23
ATOM     23  O   LIG    1        3.077  -0.980  -1.322  0.00  0.00    -0.349 OA
ATOM     24  C   LIG    1        2.531  -1.452  -2.484  0.00  0.00    +0.197 C 
ENDBRANCH   1  23
BRANCH   5  25
ATOM     25  C   LIG    1       -3.421  -0.912   0.175  0.00  0.00    +0.111 C 
BRANCH  25  26
ATOM     26  S   LIG    1       -4.238   0.171   1.422  0.00  0.00    -0.080 S 
BRANCH  26  27
ATOM     27  C   LIG    1       -5.995  -0.061   1.384  0.00  0.00    +0.209 A 
ATOM     28  N   LIG    1       -6.701  -0.940   2.106  0.00  0.00    -0.102 NA
ATOM     29  N   LIG    1       -8.001  -0.819   1.804  0.00  0.00    -0.022 NA
ATOM     30  N   LIG    1       -8.100   0.128   0.900  0.00  0.00    -0.043 NA
ATOM     31  N   LIG    1       -6.875   0.608   0.629  0.00  0.00    -0.223 N 
ATOM     32  C   LIG    1       -6.634   1.662  -0.325  0.00  0.00    +0.177 C 
ENDBRANCH  26  27
ENDBRANCH  25  26
ENDBRANCH   5  25
TORSDOF 11
