REMARK  Name = molecules/SNFOERUNNSHUGP-ZXZARUISSA-N.pdb
REMARK                            x       y       z     vdW  Elec       q    Type
REMARK                         _______ _______ _______ _____ _____    ______ ____
ROOT
ATOM      1  C   LIG    1        0.711  -0.629  -0.199  0.00  0.00    +0.295 C 
ENDROOT
BRANCH   1   2
ATOM      2  O   LIG    1        1.204  -0.909   1.099  0.00  0.00    -0.341 OA
BRANCH   2   3
ATOM      3  N   LIG    1        1.795  -2.081   1.456  0.00  0.00    +0.218 N 
ATOM      4  O   LIG    1        2.777  -2.090   2.393  0.00  0.00    -0.090 OA
ATOM      5  O   LIG    1        1.436  -3.141   0.923  0.00  0.00    -0.090 OA
ENDBRANCH   2   3
ENDBRANCH   1   2
BRANCH   1   6
ATOM      6  C   LIG    1       -0.771  -0.338  -0.218  0.00  0.00    +0.295 C 
BRANCH   6   7
ATOM      7  C   LIG    1       -1.166   0.855   0.594  0.00  0.00    +0.318 C 
BRANCH   7   8
ATOM      8  O   LIG    1       -2.563   1.024   0.425  0.00  0.00    -0.348 OA
BRANCH   8   9
ATOM      9  N   LIG    1       -3.285   2.017   1.018  0.00  0.00    +0.217 N 
ATOM     10  O   LIG    1       -3.496   1.958   2.236  0.00  0.00    -0.090 OA
ATOM     11  O   LIG    1       -3.783   3.074   0.313  0.00  0.00    -0.090 OA
ENDBRANCH   8   9
ENDBRANCH   7   8
ENDBRANCH   6   7
BRANCH   6  12
ATOM     12  O   LIG    1       -1.505  -1.462   0.271  0.00  0.00    -0.341 OA
BRANCH  12  13
ATOM     13  N   LIG    1       -2.382  -2.094  -0.564  0.00  0.00    +0.218 N 
ATOM     14  O   LIG    1       -3.522  -1.632  -0.705  0.00  0.00    -0.090 OA
ATOM     15  O   LIG    1       -1.978  -3.222  -1.224  0.00  0.00    -0.090 OA
ENDBRANCH  12  13
ENDBRANCH   6  12
ENDBRANCH   1   6
BRANCH   1  16
ATOM     16  C   LIG    1        1.440   0.552  -0.752  0.00  0.00    +0.318 C 
BRANCH  16  17
ATOM     17  O   LIG    1        2.853   0.284  -0.846  0.00  0.00    -0.348 OA
BRANCH  17  18
ATOM     18  N   LIG    1        3.618   1.295  -1.339  0.00  0.00    +0.217 N 
ATOM     19  O   LIG    1        4.077   2.270  -0.512  0.00  0.00    -0.090 OA
ATOM     20  O   LIG    1        3.893   1.326  -2.540  0.00  0.00    -0.090 OA
ENDBRANCH  17  18
ENDBRANCH  16  17
ENDBRANCH   1  16
TORSDOF 11
