REMARK  Name = molecules/SNIOPGDIGTZGOP-UHFFFAOYSA-N.pdb
REMARK                            x       y       z     vdW  Elec       q    Type
REMARK                         _______ _______ _______ _____ _____    ______ ____
ROOT
ATOM      1  C   LIG    1        0.111   0.465  -0.111  0.00  0.00    +0.289 C 
ENDROOT
BRANCH   1   2
ATOM      2  O   LIG    1       -0.193   1.624   0.597  0.00  0.00    -0.341 OA
BRANCH   2   3
ATOM      3  N   LIG    1       -0.507   2.830   0.068  0.00  0.00    +0.218 N 
ATOM      4  O   LIG    1       -1.384   3.688   0.722  0.00  0.00    -0.090 OA
ATOM      5  O   LIG    1       -0.048   3.249  -1.013  0.00  0.00    -0.090 OA
ENDBRANCH   2   3
ENDBRANCH   1   2
BRANCH   1   6
ATOM      6  C   LIG    1        1.510   0.015   0.195  0.00  0.00    +0.318 C 
BRANCH   6   7
ATOM      7  O   LIG    1        1.862  -1.158  -0.501  0.00  0.00    -0.348 OA
BRANCH   7   8
ATOM      8  N   LIG    1        3.127  -1.658  -0.293  0.00  0.00    +0.217 N 
ATOM      9  O   LIG    1        3.651  -1.659   0.980  0.00  0.00    -0.090 OA
ATOM     10  O   LIG    1        3.834  -2.116  -1.205  0.00  0.00    -0.090 OA
ENDBRANCH   7   8
ENDBRANCH   6   7
ENDBRANCH   1   6
BRANCH   1  11
ATOM     11  C   LIG    1       -0.917  -0.606   0.183  0.00  0.00    +0.318 C 
BRANCH  11  12
ATOM     12  O   LIG    1       -2.185  -0.164  -0.194  0.00  0.00    -0.348 OA
BRANCH  12  13
ATOM     13  N   LIG    1       -3.339  -0.860  -0.076  0.00  0.00    +0.217 N 
ATOM     14  O   LIG    1       -4.110  -0.812   0.906  0.00  0.00    -0.090 OA
ATOM     15  O   LIG    1       -3.712  -1.698  -1.114  0.00  0.00    -0.090 OA
ENDBRANCH  12  13
ENDBRANCH  11  12
ENDBRANCH   1  11
TORSDOF 8
