REMARK  Name = molecules/SNPLKNRPJHDVJA-ZETCQYMHSA-N.pdb
REMARK                            x       y       z     vdW  Elec       q    Type
REMARK                         _______ _______ _______ _____ _____    ______ ____
ROOT
ATOM      1  C   LIG    1       -0.772  -0.473   0.996  0.00  0.00    +0.208 C 
ENDROOT
BRANCH   1   2
ATOM      2  C   LIG    1        0.339  -0.485   0.032  0.00  0.00    +0.242 C 
ATOM      3  N   LIG    1        0.964   0.701  -0.405  0.00  0.00    -0.313 N 
ATOM      4  H   LIG    1        0.670   1.634  -0.051  0.00  0.00    +0.149 HD
ATOM      5  O   LIG    1        0.754  -1.577  -0.422  0.00  0.00    -0.273 OA
BRANCH   3   6
ATOM      6  C   LIG    1        2.072   0.663  -1.373  0.00  0.00    +0.106 C 
BRANCH   6   7
ATOM      7  C   LIG    1        3.241  -0.112  -0.860  0.00  0.00    +0.046 C 
BRANCH   7   8
ATOM      8  C   LIG    1        3.713   0.564   0.420  0.00  0.00    +0.157 C 
BRANCH   8   9
ATOM      9  O   LIG    1        4.804  -0.107   0.956  0.00  0.00    -0.395 OA
ATOM     10  H   LIG    1        4.864  -1.034   0.597  0.00  0.00    +0.209 HD
ENDBRANCH   8   9
ENDBRANCH   7   8
ENDBRANCH   6   7
ENDBRANCH   3   6
ENDBRANCH   1   2
BRANCH   1  12
ATOM     11  C   LIG    1       -3.151  -0.038   1.516  0.00  0.00    +0.016 C 
ATOM     12  C   LIG    1       -2.059   0.082   0.439  0.00  0.00    +0.023 C 
ATOM     13  C   LIG    1       -1.917   1.562   0.189  0.00  0.00    +0.016 C 
BRANCH  12  14
ATOM     14  C   LIG    1       -2.528  -0.592  -0.793  0.00  0.00    +0.165 C 
BRANCH  14  15
ATOM     15  O   LIG    1       -2.793  -1.940  -0.576  0.00  0.00    -0.394 OA
ATOM     16  H   LIG    1       -2.684  -2.478  -1.379  0.00  0.00    +0.209 HD
ENDBRANCH  14  15
ENDBRANCH  12  14
ENDBRANCH   1  12
BRANCH   1  17
ATOM     17  O   LIG    1       -0.963  -1.827   1.359  0.00  0.00    -0.382 OA
ATOM     18  H   LIG    1       -0.800  -2.371   0.575  0.00  0.00    +0.210 HD
ENDBRANCH   1  17
TORSDOF 9
