REMARK  Name = molecules/SNPPWIUOZRMYNY-SECBINFHSA-N.pdb
REMARK                            x       y       z     vdW  Elec       q    Type
REMARK                         _______ _______ _______ _____ _____    ______ ____
ROOT
ATOM      1  C   LIG    1        0.672  -0.604  -0.263  0.00  0.00    +0.180 C 
ATOM      2  O   LIG    1        0.224  -1.387  -1.107  0.00  0.00    -0.290 OA
ENDROOT
BRANCH   1   3
ATOM      3  C   LIG    1        2.132  -0.523  -0.150  0.00  0.00    +0.020 A 
ATOM      4  C   LIG    1        2.743   0.213   0.830  0.00  0.00    +0.011 A 
ATOM      5  C   LIG    1        4.135   0.264   0.954  0.00  0.00    +0.002 A 
ATOM      6  C   LIG    1        4.923  -0.441   0.072  0.00  0.00    +0.020 A 
ATOM      7  C   LIG    1        4.313  -1.178  -0.909  0.00  0.00    +0.042 A 
ATOM      8 CL   LIG    1        5.304  -2.088  -2.039  0.00  0.00    -0.084 Cl
ATOM      9  C   LIG    1        2.943  -1.225  -1.027  0.00  0.00    +0.031 A 
ENDBRANCH   1   3
BRANCH   1  10
ATOM     10  C   LIG    1       -0.175   0.209   0.596  0.00  0.00    +0.123 C 
ATOM     11  C   LIG    1        0.224   1.648   0.342  0.00  0.00    +0.032 C 
BRANCH  10  12
ATOM     12  N   LIG    1       -1.502  -0.073   0.523  0.00  0.00    -0.302 NA
ATOM     13  H   LIG    1       -1.752  -0.692   1.369  0.00  0.00    +0.123 HD
BRANCH  12  14
ATOM     14  C   LIG    1       -2.460   0.025  -0.426  0.00  0.00    +0.011 C 
ATOM     15  C   LIG    1       -3.792  -0.220   0.431  0.00  0.00    +0.027 C 
ATOM     16  C   LIG    1       -2.794   1.380  -1.027  0.00  0.00    +0.027 C 
ATOM     17  C   LIG    1       -2.595  -1.090  -1.414  0.00  0.00    +0.027 C 
ENDBRANCH  12  14
ENDBRANCH  10  12
ENDBRANCH   1  10
TORSDOF 4
