REMARK  Name = molecules/SNUDIPVBUUXCDG-QHSBEEBCSA-N.pdb
REMARK                            x       y       z     vdW  Elec       q    Type
REMARK                         _______ _______ _______ _____ _____    ______ ____
ROOT
ATOM      1  C   LIG    1        0.682  -1.341   0.779  0.00  0.00    +0.131 C 
ATOM      2  C   LIG    1       -0.517  -0.785   0.706  0.00  0.00    +0.019 C 
ATOM      3  C   LIG    1       -1.377  -1.702  -0.068  0.00  0.00    +0.046 C 
ATOM      4  C   LIG    1       -2.458  -2.351   0.719  0.00  0.00    +0.015 C 
ATOM      5  C   LIG    1       -0.466  -2.646  -0.803  0.00  0.00    +0.104 C 
ATOM      6  C   LIG    1       -0.477  -4.085  -0.436  0.00  0.00    +0.125 C 
ATOM      7  C   LIG    1        1.017  -3.873  -0.376  0.00  0.00    +0.228 C 
ATOM      8  O   LIG    1        2.023  -4.557  -0.641  0.00  0.00    -0.275 OA
ATOM      9  N   LIG    1        0.701  -2.584   0.103  0.00  0.00    -0.260 N 
ENDROOT
BRANCH   1  10
ATOM     10  C   LIG    1        1.861  -0.791   1.453  0.00  0.00    +0.357 C 
ATOM     11  O   LIG    1        1.736   0.319   2.023  0.00  0.00    -0.243 OA
BRANCH  10  12
ATOM     12  O   LIG    1        3.073  -1.421   1.489  0.00  0.00    -0.423 OA
BRANCH  12  13
ATOM     13  C   LIG    1        4.226  -0.911   2.132  0.00  0.00    +0.473 C 
BRANCH  13  14
ATOM     14  O   LIG    1        4.632   0.324   1.617  0.00  0.00    -0.427 OA
BRANCH  14  15
ATOM     15  C   LIG    1        4.983   0.458   0.286  0.00  0.00    +0.315 C 
ATOM     16  O   LIG    1        4.930  -0.551  -0.451  0.00  0.00    -0.250 OA
BRANCH  15  17
ATOM     17  C   LIG    1        5.402   1.807  -0.175  0.00  0.00    +0.059 C 
ATOM     18  C   LIG    1        6.593   2.244   0.648  0.00  0.00    +0.022 C 
ATOM     19  C   LIG    1        4.242   2.762   0.053  0.00  0.00    +0.022 C 
ATOM     20  C   LIG    1        5.740   1.802  -1.645  0.00  0.00    +0.022 C 
ENDBRANCH  15  17
ENDBRANCH  14  15
ENDBRANCH  13  14
ENDBRANCH  12  13
ENDBRANCH  10  12
ENDBRANCH   1  10
BRANCH   6  21
ATOM     21  C   LIG    1       -0.934  -5.066  -1.454  0.00  0.00    +0.125 C 
ATOM     22  C   LIG    1       -0.853  -6.460  -0.839  0.00  0.00    +0.038 C 
BRANCH  21  23
ATOM     23  O   LIG    1       -2.182  -4.799  -1.981  0.00  0.00    -0.391 OA
ATOM     24  H   LIG    1       -2.102  -4.088  -2.668  0.00  0.00    +0.210 HD
ENDBRANCH  21  23
ENDBRANCH   6  21
BRANCH   2  25
ATOM     25  S   LIG    1       -0.929   0.792   1.442  0.00  0.00    -0.121 S 
BRANCH  25  26
ATOM     26  C   LIG    1       -2.612   1.254   1.167  0.00  0.00    +0.086 C 
ATOM     27  C   LIG    1       -2.791   2.754   1.375  0.00  0.00    +0.123 C 
ATOM     28  N   LIG    1       -3.739   2.734   0.277  0.00  0.00    -0.308 N 
ATOM     29  C   LIG    1       -3.061   1.550  -0.217  0.00  0.00    +0.123 C 
BRANCH  28  30
ATOM     30  C   LIG    1       -4.838   3.572  -0.079  0.00  0.00    +0.152 C 
ATOM     31  N   LIG    1       -6.060   3.500   0.241  0.00  0.00    -0.263 NA
ATOM     32  C   LIG    1       -6.982   4.441  -0.225  0.00  0.00    +0.155 C 
ATOM     33  C   LIG    1       -6.526   5.066  -1.530  0.00  0.00    +0.100 C 
ATOM     34  S   LIG    1       -4.717   5.020  -1.156  0.00  0.00    -0.089 S 
ENDBRANCH  28  30
ENDBRANCH  25  26
ENDBRANCH   2  25
TORSDOF 11
