REMARK  Name = molecules/SOLUWJRYJLAZCX-LYOVBCGYSA-N.pdb
REMARK                            x       y       z     vdW  Elec       q    Type
REMARK                         _______ _______ _______ _____ _____    ______ ____
ROOT
ATOM      1  C   LIG    1       -2.915  -1.126   0.751  0.00  0.00    +0.269 C 
ATOM      2  O   LIG    1       -3.375  -2.242   1.151  0.00  0.00    -0.268 OA
ATOM      3  C   LIG    1       -1.463  -0.937   0.954  0.00  0.00    +0.151 A 
ATOM      4  C   LIG    1       -0.693  -1.929   1.509  0.00  0.00    +0.194 A 
ATOM      5  C   LIG    1        0.664  -1.714   1.650  0.00  0.00    +0.236 A 
ATOM      6  O   LIG    1        1.410  -2.610   2.166  0.00  0.00    -0.283 OA
ATOM      7  C   LIG    1        1.191  -0.518   1.230  0.00  0.00    +0.103 A 
ATOM      8  C   LIG    1        0.369   0.446   0.680  0.00  0.00    +0.103 A 
ATOM      9  N   LIG    1       -0.976   0.233   0.540  0.00  0.00    -0.335 N 
ATOM     10  C   LIG    1       -1.722   1.315  -0.048  0.00  0.00    +0.173 C 
ATOM     11  C   LIG    1       -3.161   1.105  -0.284  0.00  0.00    +0.229 C 
ATOM     12  O   LIG    1       -3.501   1.285  -1.638  0.00  0.00    -0.354 OA
ATOM     13  C   LIG    1       -4.845   1.098  -1.869  0.00  0.00    +0.123 C 
ATOM     14  C   LIG    1       -5.740   1.858  -0.902  0.00  0.00    +0.033 C 
ATOM     15  C   LIG    1       -5.870   0.936   0.293  0.00  0.00    +0.025 C 
ATOM     16  C   LIG    1       -5.133  -0.338  -0.049  0.00  0.00    +0.081 C 
ATOM     17  C   LIG    1       -5.267  -0.326  -1.589  0.00  0.00    +0.054 C 
ATOM     18  N   LIG    1       -3.717  -0.146   0.161  0.00  0.00    -0.266 N 
ENDROOT
BRANCH   7  19
ATOM     19  C   LIG    1        2.650  -0.293   1.306  0.00  0.00    +0.250 C 
ATOM     20  O   LIG    1        3.015   0.876   1.569  0.00  0.00    -0.270 OA
ATOM     21  N   LIG    1        3.540  -1.386   1.083  0.00  0.00    -0.307 N 
ATOM     22  H   LIG    1        3.128  -2.305   0.835  0.00  0.00    +0.149 HD
BRANCH  21  23
ATOM     23  C   LIG    1        4.964  -1.217   1.156  0.00  0.00    +0.145 C 
BRANCH  23  24
ATOM     24  C   LIG    1        5.583  -0.370   0.129  0.00  0.00    +0.040 A 
ATOM     25  C   LIG    1        6.953  -0.144   0.269  0.00  0.00    +0.134 A 
ATOM     26  F   LIG    1        7.615  -0.686   1.344  0.00  0.00    -0.205 F 
ATOM     27  C   LIG    1        7.634   0.594  -0.640  0.00  0.00    +0.077 A 
ATOM     28  C   LIG    1        6.956   1.132  -1.725  0.00  0.00    +0.129 A 
ATOM     29  C   LIG    1        5.587   0.907  -1.868  0.00  0.00    +0.077 A 
ATOM     30  F   LIG    1        7.668   1.861  -2.612  0.00  0.00    -0.205 F 
ATOM     31  C   LIG    1        4.910   0.149  -0.927  0.00  0.00    +0.134 A 
ATOM     32  F   LIG    1        3.562  -0.081  -1.142  0.00  0.00    -0.205 F 
ENDBRANCH  23  24
ENDBRANCH  21  23
ENDBRANCH   7  19
BRANCH   4  33
ATOM     33  O   LIG    1       -1.229  -3.120   1.925  0.00  0.00    -0.502 OA
ATOM     34  H   LIG    1       -0.632  -3.823   2.335  0.00  0.00    +0.292 HD
ENDBRANCH   4  33
TORSDOF 4
