REMARK  Name = molecules/SONNWYBIRXJNDC-VIFPVBQESA-N.pdb
REMARK                            x       y       z     vdW  Elec       q    Type
REMARK                         _______ _______ _______ _____ _____    ______ ____
ROOT
ATOM      1  C   LIG    1       -0.702  -0.489   0.319  0.00  0.00    -0.014 A 
ATOM      2  C   LIG    1       -1.479  -1.432   0.958  0.00  0.00    +0.006 A 
ATOM      3  C   LIG    1       -2.835  -1.573   0.714  0.00  0.00    +0.004 A 
ATOM      4  C   LIG    1       -3.425  -0.731  -0.209  0.00  0.00    +0.045 A 
ATOM      5  C   LIG    1       -2.681   0.214  -0.859  0.00  0.00    +0.117 A 
ATOM      6  C   LIG    1       -1.312   0.331  -0.590  0.00  0.00    +0.051 A 
ENDROOT
BRANCH   5   7
ATOM      7  O   LIG    1       -3.305   1.043  -1.779  0.00  0.00    -0.507 OA
ATOM      8  H   LIG    1       -3.718   1.928  -1.511  0.00  0.00    +0.292 HD
ENDBRANCH   5   7
BRANCH   1   9
ATOM      9  C   LIG    1        0.748  -0.375   0.614  0.00  0.00    +0.158 C 
BRANCH   9  10
ATOM     10  O   LIG    1        1.332  -1.655   0.640  0.00  0.00    -0.386 OA
ATOM     11  H   LIG    1        0.842  -2.188  -0.037  0.00  0.00    +0.210 HD
ENDBRANCH   9  10
BRANCH   9  12
ATOM     12  C   LIG    1        1.494   0.432  -0.396  0.00  0.00    +0.116 C 
BRANCH  12  13
ATOM     13  N   LIG    1        2.898   0.498   0.016  0.00  0.00    -0.316 NA
ATOM     14  H   LIG    1        2.997   0.894   0.977  0.00  0.00    +0.122 HD
ATOM     15  C   LIG    1        3.699   1.260  -0.902  0.00  0.00    +0.101 C 
ENDBRANCH  12  13
ENDBRANCH   9  12
ENDBRANCH   1   9
TORSDOF 5
