REMARK  Name = molecules/SOROUYSPFADXSN-UENFOFCHSA-N.pdb
REMARK                            x       y       z     vdW  Elec       q    Type
REMARK                         _______ _______ _______ _____ _____    ______ ____
ROOT
ATOM      1  C   LIG    1       -1.345  -0.783   0.433  0.00  0.00    +0.201 C 
ATOM      2  N   LIG    1       -0.531   0.411   0.521  0.00  0.00    -0.271 N 
ATOM      3  C   LIG    1        0.055   1.578   0.968  0.00  0.00    +0.240 C 
ATOM      4  O   LIG    1       -0.117   2.495   1.855  0.00  0.00    -0.273 OA
ATOM      5  C   LIG    1        1.210   1.536  -0.040  0.00  0.00    +0.190 C 
ATOM      6  C   LIG    1        0.286   0.544  -0.674  0.00  0.00    +0.165 C 
ATOM      7  S   LIG    1        0.883  -1.152  -0.860  0.00  0.00    -0.127 S 
ATOM      8  C   LIG    1       -0.455  -1.906   0.150  0.00  0.00    +0.042 C 
ATOM      9  C   LIG    1        0.176  -2.495   1.418  0.00  0.00    +0.025 C 
ATOM     10  C   LIG    1       -1.055  -3.018  -0.661  0.00  0.00    +0.025 C 
ENDROOT
BRANCH   5  11
ATOM     11  N   LIG    1        2.372   1.122   0.610  0.00  0.00    -0.300 N 
ATOM     12  C   LIG    1        3.477   0.728   1.227  0.00  0.00    +0.235 C 
ATOM     13  O   LIG    1        4.328   1.456   1.883  0.00  0.00    -0.274 OA
ATOM     14  H   LIG    1        2.637   2.423   0.911  0.00  0.00    +0.150 HD
BRANCH  12  15
ATOM     15  C   LIG    1        3.983  -0.731   1.281  0.00  0.00    +0.168 C 
BRANCH  15  16
ATOM     16  C   LIG    1        5.122  -0.699   0.313  0.00  0.00    -0.022 A 
ATOM     17  C   LIG    1        6.194  -1.574   0.409  0.00  0.00    +0.005 A 
ATOM     18  C   LIG    1        7.272  -1.547  -0.421  0.00  0.00    +0.000 A 
ATOM     19  C   LIG    1        7.331  -0.602  -1.435  0.00  0.00    +0.000 A 
ATOM     20  C   LIG    1        6.261   0.274  -1.540  0.00  0.00    +0.000 A 
ATOM     21  C   LIG    1        5.186   0.239  -0.702  0.00  0.00    +0.005 A 
ENDBRANCH  15  16
BRANCH  15  22
ATOM     22  N   LIG    1        4.661  -0.919   2.578  0.00  0.00    -0.316 NA
ATOM     23  H   LIG    1        4.071  -0.517   3.325  0.00  0.00    +0.119 HD
ATOM     24  H   LIG    1        4.971  -1.881   2.708  0.00  0.00    +0.119 HD
ENDBRANCH  15  22
ENDBRANCH  12  15
ENDBRANCH   5  11
BRANCH   1  25
ATOM     25  C   LIG    1       -2.489  -0.574  -0.467  0.00  0.00    +0.332 C 
ATOM     26  O   LIG    1       -3.030  -1.548  -1.082  0.00  0.00    -0.249 OA
BRANCH  25  27
ATOM     27  O   LIG    1       -3.073   0.679  -0.718  0.00  0.00    -0.419 OA
BRANCH  27  28
ATOM     28  C   LIG    1       -4.176   0.776  -1.600  0.00  0.00    +0.403 C 
ATOM     29  C   LIG    1       -5.370   1.196  -0.794  0.00  0.00    +0.047 A 
ATOM     30  C   LIG    1       -5.990   0.686   0.304  0.00  0.00    +0.012 A 
ATOM     31  C   LIG    1       -7.106   1.224   0.893  0.00  0.00    +0.001 A 
ATOM     32  C   LIG    1       -7.628   2.380   0.305  0.00  0.00    +0.001 A 
ATOM     33  C   LIG    1       -7.043   2.940  -0.807  0.00  0.00    +0.015 A 
ATOM     34  C   LIG    1       -5.925   2.348  -1.345  0.00  0.00    +0.069 A 
ATOM     35  C   LIG    1       -5.100   2.709  -2.472  0.00  0.00    +0.343 C 
ATOM     36  O   LIG    1       -5.215   3.668  -3.266  0.00  0.00    -0.245 OA
ATOM     37  O   LIG    1       -4.056   1.765  -2.583  0.00  0.00    -0.417 OA
ENDBRANCH  27  28
ENDBRANCH  25  27
ENDBRANCH   1  25
TORSDOF 7
