REMARK  Name = molecules/SOYKEARSMXGVTM-HNNXBMFYSA-N.pdb
REMARK                            x       y       z     vdW  Elec       q    Type
REMARK                         _______ _______ _______ _____ _____    ______ ____
ROOT
ATOM      1  C   LIG    1       -0.436  -0.188  -0.535  0.00  0.00    +0.069 C 
ENDROOT
BRANCH   1   2
ATOM      2  C   LIG    1       -1.584  -1.071  -0.285  0.00  0.00    -0.038 A 
ATOM      3  C   LIG    1       -1.963  -1.506   0.965  0.00  0.00    +0.006 A 
ATOM      4  C   LIG    1       -3.048  -2.336   1.131  0.00  0.00    +0.020 A 
ATOM      5  C   LIG    1       -3.779  -2.748   0.033  0.00  0.00    +0.041 A 
ATOM      6 CL   LIG    1       -5.150  -3.808   0.323  0.00  0.00    -0.084 Cl
ATOM      7  C   LIG    1       -3.427  -2.333  -1.224  0.00  0.00    +0.020 A 
ATOM      8  C   LIG    1       -2.337  -1.504  -1.357  0.00  0.00    +0.006 A 
ENDBRANCH   1   2
BRANCH   1   9
ATOM      9  C   LIG    1       -0.726   1.231  -0.352  0.00  0.00    +0.049 A 
ATOM     10  C   LIG    1       -0.597   1.898   0.849  0.00  0.00    +0.024 A 
ATOM     11  C   LIG    1       -0.889   3.255   0.958  0.00  0.00    +0.003 A 
ATOM     12  C   LIG    1       -1.315   3.955  -0.152  0.00  0.00    +0.020 A 
ATOM     13  C   LIG    1       -1.434   3.264  -1.333  0.00  0.00    +0.111 A 
ATOM     14  N   LIG    1       -1.145   1.959  -1.400  0.00  0.00    -0.259 NA
ENDBRANCH   1   9
BRANCH   1  15
ATOM     15  C   LIG    1        0.744  -0.675   0.269  0.00  0.00    +0.029 C 
BRANCH  15  16
ATOM     16  C   LIG    1        1.967   0.195   0.052  0.00  0.00    +0.085 C 
BRANCH  16  17
ATOM     17  N   LIG    1        3.062  -0.346   0.860  0.00  0.00    -0.308 NA
ATOM     18  C   LIG    1        4.166   0.609   0.795  0.00  0.00    +0.104 C 
ATOM     19  C   LIG    1        3.490  -1.633   0.347  0.00  0.00    +0.104 C 
ENDBRANCH  16  17
ENDBRANCH  15  16
ENDBRANCH   1  15
TORSDOF 5
