REMARK  Name = molecules/SPAGIJMPHSUYSE-UHFFFAOYSA-N.pdb
REMARK                            x       y       z     vdW  Elec       q    Type
REMARK                         _______ _______ _______ _____ _____    ______ ____
ROOT
ATOM      1 MG   LIG    1        0.995  -0.365   0.302  0.00  0.00    +0.000 Mg
ATOM      2  O   LIG    1       -0.928  -0.558  -0.180  0.00  0.00    +0.000 OA
ATOM      3  O   LIG    1       -0.067   0.923  -0.824  0.00  0.00    +0.000 OA
ENDROOT
TORSDOF 0
