REMARK  Name = molecules/SPDZFJLQFWSJGA-UHFFFAOYSA-N.pdb
REMARK                            x       y       z     vdW  Elec       q    Type
REMARK                         _______ _______ _______ _____ _____    ______ ____
ROOT
ATOM      1  P   LIG    1       -1.232  -0.065  -0.758  0.00  0.00    +0.308 P 
ATOM      2  O   LIG    1       -2.311  -0.287  -1.845  0.00  0.00    -0.264 OA
ENDROOT
BRANCH   1   3
ATOM      3  N   LIG    1        0.348   0.031  -1.513  0.00  0.00    -0.207 N 
ATOM      4  C   LIG    1        1.476  -0.084  -0.623  0.00  0.00    +0.407 C 
ATOM      5  O   LIG    1        1.333  -0.240   0.613  0.00  0.00    -0.226 OA
ATOM      6  H   LIG    1        0.502   0.163  -2.519  0.00  0.00    +0.162 HD
BRANCH   4   7
ATOM      7  O   LIG    1        2.786  -0.025  -1.113  0.00  0.00    -0.450 OA
BRANCH   7   8
ATOM      8  C   LIG    1        3.855  -0.143  -0.204  0.00  0.00    +0.230 C 
ATOM      9  C   LIG    1        3.889   0.918   0.850  0.00  0.00    +0.048 C 
ENDBRANCH   7   8
ENDBRANCH   4   7
ENDBRANCH   1   3
BRANCH   1  10
ATOM     10  N   LIG    1       -1.206  -1.405   0.329  0.00  0.00    -0.223 NA
ATOM     11  C   LIG    1       -2.368  -2.159   0.665  0.00  0.00    +0.110 C 
ATOM     12  C   LIG    1       -1.342  -2.715  -0.315  0.00  0.00    +0.110 C 
ENDBRANCH   1  10
BRANCH   1  13
ATOM     13  N   LIG    1       -1.518   1.456   0.032  0.00  0.00    -0.223 NA
ATOM     14  C   LIG    1       -2.846   1.765   0.521  0.00  0.00    +0.110 C 
ATOM     15  C   LIG    1       -2.364   2.406  -0.744  0.00  0.00    +0.110 C 
ENDBRANCH   1  13
TORSDOF 5
