REMARK  Name = molecules/SPIUTQOUKAMGCX-UHFFFAOYSA-N.pdb
REMARK                            x       y       z     vdW  Elec       q    Type
REMARK                         _______ _______ _______ _____ _____    ______ ____
ROOT
ATOM      1  C   LIG    1       -0.601  -2.850  -0.787  0.00  0.00    +0.102 A 
ATOM      2  C   LIG    1       -1.860  -2.382  -0.399  0.00  0.00    +0.153 A 
ATOM      3  C   LIG    1       -2.881  -3.297  -0.202  0.00  0.00    +0.065 A 
ATOM      4  C   LIG    1       -4.095  -2.823   0.172  0.00  0.00    +0.196 A 
ATOM      5  C   LIG    1       -4.313  -1.461   0.353  0.00  0.00    +0.040 A 
ATOM      6  C   LIG    1       -5.705  -1.062   0.695  0.00  0.00    +0.051 C 
ATOM      7  C   LIG    1       -3.273  -0.611   0.148  0.00  0.00    +0.142 A 
ATOM      8  O   LIG    1       -5.027  -3.644   0.352  0.00  0.00    -0.287 OA
ATOM      9  C   LIG    1       -2.650  -4.649  -0.388  0.00  0.00    +0.015 A 
ATOM     10  C   LIG    1       -1.406  -5.075  -0.769  0.00  0.00    +0.002 A 
ATOM     11  O   LIG    1       -2.085  -1.115  -0.223  0.00  0.00    -0.454 OA
ATOM     12  C   LIG    1       -0.403  -4.181  -0.963  0.00  0.00    +0.019 A 
ENDROOT
BRANCH   7  13
ATOM     13  C   LIG    1       -3.361   0.849   0.299  0.00  0.00    +0.018 A 
ATOM     14  C   LIG    1       -4.288   1.506   1.034  0.00  0.00    +0.011 A 
ATOM     15  C   LIG    1       -4.311   2.900   1.031  0.00  0.00    +0.001 A 
ATOM     16  C   LIG    1       -3.403   3.603   0.294  0.00  0.00    +0.000 A 
ATOM     17  C   LIG    1       -2.437   2.982  -0.470  0.00  0.00    +0.001 A 
ATOM     18  C   LIG    1       -2.442   1.616  -0.447  0.00  0.00    +0.011 A 
ENDBRANCH   7  13
BRANCH   1  19
ATOM     19  C   LIG    1        0.507  -1.922  -0.984  0.00  0.00    +0.343 C 
ATOM     20  O   LIG    1        1.598  -2.391  -1.389  0.00  0.00    -0.245 OA
BRANCH  19  21
ATOM     21  O   LIG    1        0.429  -0.579  -0.754  0.00  0.00    -0.460 OA
BRANCH  21  22
ATOM     22  C   LIG    1        1.435   0.388  -0.906  0.00  0.00    +0.248 C 
BRANCH  22  23
ATOM     23  C   LIG    1        2.561   0.073   0.012  0.00  0.00    +0.125 C 
BRANCH  23  24
ATOM     24  N   LIG    1        3.662   0.937   0.011  0.00  0.00    -0.299 NA
ATOM     25  C   LIG    1        3.538   2.250   0.503  0.00  0.00    +0.084 C 
ATOM     26  C   LIG    1        4.854   2.569   1.229  0.00  0.00    +0.015 C 
ATOM     27  C   LIG    1        5.953   2.450   0.201  0.00  0.00    +0.002 C 
ATOM     28  C   LIG    1        6.045   1.014  -0.284  0.00  0.00    +0.015 C 
ATOM     29  C   LIG    1        4.689   0.707  -0.934  0.00  0.00    +0.084 C 
ENDBRANCH  23  24
ENDBRANCH  22  23
ENDBRANCH  21  22
ENDBRANCH  19  21
ENDBRANCH   1  19
TORSDOF 6
