REMARK  Name = molecules/SPLVKBMIQSSFFN-UHFFFAOYSA-N.pdb
REMARK                            x       y       z     vdW  Elec       q    Type
REMARK                         _______ _______ _______ _____ _____    ______ ____
ROOT
ATOM      1  C   LIG    1       -0.757  -0.635  -0.807  0.00  0.00    +0.231 C 
ENDROOT
BRANCH   1   2
ATOM      2  C   LIG    1        0.646  -0.415  -0.444  0.00  0.00    -0.014 A 
ATOM      3  C   LIG    1        1.387  -1.382   0.216  0.00  0.00    +0.010 A 
ATOM      4  C   LIG    1        2.707  -1.178   0.558  0.00  0.00    +0.046 A 
ATOM      5  C   LIG    1        3.346   0.006   0.255  0.00  0.00    +0.120 A 
ATOM      6  C   LIG    1        2.610   0.987  -0.409  0.00  0.00    +0.046 A 
ATOM      7  C   LIG    1        1.278   0.770  -0.750  0.00  0.00    +0.010 A 
BRANCH   5   8
ATOM      8  O   LIG    1        4.675   0.200   0.605  0.00  0.00    -0.495 OA
ATOM      9  C   LIG    1        5.275   1.450   0.261  0.00  0.00    +0.277 C 
ENDBRANCH   5   8
ENDBRANCH   1   2
BRANCH   1  10
ATOM     10  N   LIG    1       -1.673  -0.205   0.245  0.00  0.00    -0.272 N 
ATOM     11  H   LIG    1       -1.245   0.196   1.105  0.00  0.00    +0.258 HD
BRANCH  10  12
ATOM     12  C   LIG    1       -3.054  -0.352   0.044  0.00  0.00    +0.381 C 
ATOM     13  N   LIG    1       -3.600  -1.502   0.207  0.00  0.00    -0.117 NA
ATOM     14  C   LIG    1       -2.791  -2.624   0.595  0.00  0.00    +0.291 C 
BRANCH  12  15
ATOM     15  N   LIG    1       -3.909   0.724  -0.342  0.00  0.00    -0.279 N 
ATOM     16  C   LIG    1       -3.698   2.064   0.148  0.00  0.00    +0.239 C 
ATOM     17  H   LIG    1       -4.697   0.526  -0.989  0.00  0.00    +0.258 HD
ENDBRANCH  12  15
ENDBRANCH  10  12
ENDBRANCH   1  10
TORSDOF 5
