REMARK  Name = molecules/SPPTWHFVYKCNNK-FQEVSTJZSA-N.pdb
REMARK                            x       y       z     vdW  Elec       q    Type
REMARK                         _______ _______ _______ _____ _____    ______ ____
ROOT
ATOM      1  C   LIG    1       -0.077   0.333  -0.442  0.00  0.00    +0.164 C 
ENDROOT
BRANCH   1   2
ATOM      2  N   LIG    1       -1.228  -0.174   0.288  0.00  0.00    -0.300 N 
ATOM      3  H   LIG    1       -1.155  -0.368   1.310  0.00  0.00    +0.150 HD
ATOM      4  C   LIG    1       -2.460  -0.416  -0.344  0.00  0.00    +0.245 C 
ATOM      5  O   LIG    1       -2.564  -0.187  -1.571  0.00  0.00    -0.270 OA
BRANCH   4   6
ATOM      6  C   LIG    1       -3.613  -0.920   0.374  0.00  0.00    +0.037 A 
ATOM      7  C   LIG    1       -3.627  -1.231   1.716  0.00  0.00    +0.013 A 
ATOM      8  C   LIG    1       -4.744  -1.715   2.386  0.00  0.00    +0.001 A 
ATOM      9  C   LIG    1       -5.920  -1.907   1.700  0.00  0.00    +0.000 A 
ATOM     10  C   LIG    1       -5.938  -1.606   0.363  0.00  0.00    +0.001 A 
ATOM     11  C   LIG    1       -4.830  -1.129  -0.292  0.00  0.00    +0.013 A 
ENDBRANCH   4   6
ENDBRANCH   1   2
BRANCH   1  12
ATOM     12  C   LIG    1        1.050  -0.649  -0.257  0.00  0.00    +0.238 C 
ATOM     13  O   LIG    1        0.786  -1.655   0.451  0.00  0.00    -0.273 OA
ATOM     14  N   LIG    1        2.284  -0.389  -0.867  0.00  0.00    -0.284 N 
ATOM     15  H   LIG    1        2.345   0.511  -1.437  0.00  0.00    +0.155 HD
BRANCH  14  16
ATOM     16  C   LIG    1        3.449  -1.196  -0.804  0.00  0.00    +0.033 A 
ATOM     17  C   LIG    1        3.543  -2.382  -0.118  0.00  0.00    +0.024 A 
ATOM     18  C   LIG    1        4.713  -3.141  -0.086  0.00  0.00    +0.017 A 
ATOM     19  C   LIG    1        5.843  -2.727  -0.750  0.00  0.00    +0.059 A 
ATOM     20  C   LIG    1        5.771  -1.542  -1.443  0.00  0.00    +0.017 A 
ATOM     21  C   LIG    1        4.616  -0.794  -1.474  0.00  0.00    +0.024 A 
BRANCH  19  22
ATOM     22  C   LIG    1        7.061  -3.535  -0.705  0.00  0.00    +0.337 C 
ATOM     23  O   LIG    1        8.096  -3.166  -1.308  0.00  0.00    -0.245 OA
BRANCH  22  24
ATOM     24  O   LIG    1        7.121  -4.729  -0.001  0.00  0.00    -0.477 OA
ATOM     25  H   LIG    1        7.351  -4.667   0.987  0.00  0.00    +0.295 HD
ENDBRANCH  22  24
ENDBRANCH  19  22
ENDBRANCH  14  16
ENDBRANCH   1  12
BRANCH   1  26
ATOM     26  C   LIG    1        0.398   1.627   0.197  0.00  0.00    +0.067 C 
BRANCH  26  27
ATOM     27  C   LIG    1       -0.625   2.698   0.088  0.00  0.00    -0.045 A 
ATOM     28  C   LIG    1       -1.600   2.914   1.040  0.00  0.00    +0.007 A 
ATOM     29  C   LIG    1       -2.541   3.922   0.911  0.00  0.00    +0.045 A 
ATOM     30  C   LIG    1       -2.544   4.759  -0.185  0.00  0.00    +0.117 A 
ATOM     31  C   LIG    1       -1.569   4.544  -1.138  0.00  0.00    +0.045 A 
ATOM     32  C   LIG    1       -0.631   3.540  -1.009  0.00  0.00    +0.007 A 
BRANCH  30  33
ATOM     33  O   LIG    1       -3.486   5.778  -0.330  0.00  0.00    -0.507 OA
ATOM     34  H   LIG    1       -3.306   6.707   0.035  0.00  0.00    +0.292 HD
ENDBRANCH  30  33
ENDBRANCH  26  27
ENDBRANCH   1  26
TORSDOF 9
