REMARK  Name = molecules/SQYNKIJPMDEDEG-KXGDERBTSA-N.pdb
REMARK                            x       y       z     vdW  Elec       q    Type
REMARK                         _______ _______ _______ _____ _____    ______ ____
ROOT
ATOM      1  C   LIG    1       -1.822  -1.938   0.142  0.00  0.00    +0.070 C 
ATOM      2  C   LIG    1       -0.793  -0.895   0.414  0.00  0.00    +0.253 C 
ATOM      3  O   LIG    1        0.492  -1.243   0.203  0.00  0.00    -0.323 OA
ATOM      4  C   LIG    1        1.314  -0.302  -0.348  0.00  0.00    +0.253 C 
ATOM      5  C   LIG    1        2.729  -0.620   0.162  0.00  0.00    +0.070 C 
ATOM      6  O   LIG    1        0.967   1.002  -0.139  0.00  0.00    -0.323 OA
ATOM      7  C   LIG    1       -0.340   1.241   0.155  0.00  0.00    +0.253 C 
ATOM      8  C   LIG    1       -0.895   2.529  -0.334  0.00  0.00    +0.070 C 
ATOM      9  O   LIG    1       -1.101   0.200  -0.426  0.00  0.00    -0.323 OA
ENDROOT
TORSDOF 0
