REMARK  Name = molecules/SSLHKNBKUBAHJY-HDJSIYSDSA-N.pdb
REMARK                            x       y       z     vdW  Elec       q    Type
REMARK                         _______ _______ _______ _____ _____    ______ ____
ROOT
ATOM      1  C   LIG    1        0.636  -2.235   0.023  0.00  0.00    -0.010 A 
ATOM      2  C   LIG    1        1.964  -2.063   0.370  0.00  0.00    +0.052 A 
ATOM      3  C   LIG    1        2.744  -3.172   0.610  0.00  0.00    +0.040 A 
ATOM      4 BR   LIG    1        4.584  -3.038   1.093  0.00  0.00    -0.048 Br
ATOM      5  C   LIG    1        2.196  -4.448   0.502  0.00  0.00    +0.032 A 
ATOM      6  C   LIG    1        0.875  -4.626   0.158  0.00  0.00    +0.019 A 
ATOM      7 BR   LIG    1        0.071  -6.336  -0.004  0.00  0.00    -0.050 Br
ATOM      8  C   LIG    1        0.101  -3.497  -0.081  0.00  0.00    +0.022 A 
ENDROOT
BRANCH   2   9
ATOM      9  N   LIG    1        2.591  -0.786   0.497  0.00  0.00    -0.280 N 
ATOM     10  C   LIG    1        2.642  -0.052   1.679  0.00  0.00    +0.255 C 
ATOM     11  O   LIG    1        2.120  -0.497   2.722  0.00  0.00    -0.269 OA
ATOM     12  H   LIG    1        3.049  -0.374  -0.373  0.00  0.00    +0.155 HD
BRANCH  10  13
ATOM     13  C   LIG    1        3.303   1.248   1.720  0.00  0.00    +0.074 A 
ATOM     14  S   LIG    1        3.485   2.309   3.046  0.00  0.00    -0.092 S 
ATOM     15  C   LIG    1        4.345   3.568   2.286  0.00  0.00    +0.046 A 
ATOM     16  C   LIG    1        4.467   3.117   0.997  0.00  0.00    +0.008 A 
ATOM     17  C   LIG    1        3.933   1.926   0.707  0.00  0.00    +0.021 A 
ENDBRANCH  10  13
ENDBRANCH   2   9
BRANCH   1  18
ATOM     18  C   LIG    1       -0.199  -1.036  -0.229  0.00  0.00    +0.118 C 
BRANCH  18  19
ATOM     19  N   LIG    1       -1.534  -1.392  -0.581  0.00  0.00    -0.309 NA
ATOM     20  H   LIG    1       -1.527  -2.035  -1.409  0.00  0.00    +0.123 HD
BRANCH  19  21
ATOM     21  C   LIG    1       -2.417  -0.301  -0.813  0.00  0.00    +0.054 C 
ATOM     22  C   LIG    1       -2.687   0.498   0.443  0.00  0.00    +0.021 C 
ATOM     23  C   LIG    1       -3.881   1.404   0.108  0.00  0.00    +0.033 C 
ATOM     24  C   LIG    1       -3.346   2.397  -0.915  0.00  0.00    +0.115 C 
ATOM     25  C   LIG    1       -2.935   1.720  -2.193  0.00  0.00    +0.033 C 
ATOM     26  C   LIG    1       -2.009   0.552  -1.963  0.00  0.00    +0.021 C 
BRANCH  24  27
ATOM     27  O   LIG    1       -4.407   3.256  -1.226  0.00  0.00    -0.392 OA
ATOM     28  H   LIG    1       -4.936   3.394  -0.392  0.00  0.00    +0.210 HD
ENDBRANCH  24  27
ENDBRANCH  19  21
ENDBRANCH  18  19
ENDBRANCH   1  18
TORSDOF 6
