REMARK  Name = molecules/SSLKKMZJCJBOML-UHFFFAOYSA-N.pdb
REMARK                            x       y       z     vdW  Elec       q    Type
REMARK                         _______ _______ _______ _____ _____    ______ ____
ROOT
ATOM      1  S   LIG    1        1.817   0.802   1.002  0.00  0.00    -0.095 S 
ENDROOT
BRANCH   1   2
ATOM      2  C   LIG    1        3.337   0.496   0.119  0.00  0.00    +0.120 A 
ATOM      3  C   LIG    1        3.960  -0.715   0.333  0.00  0.00    +0.039 A 
ATOM      4  C   LIG    1        5.133  -0.978  -0.334  0.00  0.00    +0.044 A 
ATOM      5  C   LIG    1        5.642  -0.037  -1.181  0.00  0.00    +0.152 A 
ATOM      6  N   LIG    1        5.023   1.130  -1.373  0.00  0.00    -0.137 NA
ATOM      7 CL   LIG    1        7.157  -0.424  -2.017  0.00  0.00    -0.060 Cl
ATOM      8  N   LIG    1        3.896   1.376  -0.730  0.00  0.00    -0.142 NA
ENDBRANCH   1   2
BRANCH   1   9
ATOM      9  C   LIG    1        0.382   0.244   0.061  0.00  0.00    +0.171 C 
BRANCH   9  10
ATOM     10  C   LIG    1       -0.842   0.525   0.845  0.00  0.00    +0.226 C 
ATOM     11  O   LIG    1       -0.732   1.067   1.966  0.00  0.00    -0.275 OA
ATOM     12  N   LIG    1       -2.132   0.197   0.362  0.00  0.00    -0.301 N 
BRANCH  12  13
ATOM     13  C   LIG    1       -3.285   0.500   1.181  0.00  0.00    +0.104 C 
ATOM     14  C   LIG    1       -3.800   1.894   0.866  0.00  0.00    +0.024 C 
ENDBRANCH  12  13
BRANCH  12  15
ATOM     15  C   LIG    1       -2.335  -0.433  -0.927  0.00  0.00    +0.104 C 
ATOM     16  C   LIG    1       -2.322  -1.926  -0.850  0.00  0.00    +0.024 C 
ENDBRANCH  12  15
ENDBRANCH   9  10
ENDBRANCH   1   9
TORSDOF 5
