REMARK  Name = molecules/SSMSBSWKLKKXGG-LLVKDONJSA-N.pdb
REMARK                            x       y       z     vdW  Elec       q    Type
REMARK                         _______ _______ _______ _____ _____    ______ ____
ROOT
ATOM      1  C   LIG    1       -0.760   1.050  -0.905  0.00  0.00    +0.160 C 
ENDROOT
BRANCH   1   2
ATOM      2  C   LIG    1       -1.806   0.504  -0.038  0.00  0.00    +0.000 A 
ATOM      3  C   LIG    1       -2.909   1.298   0.342  0.00  0.00    +0.047 A 
ATOM      4  C   LIG    1       -3.961   0.737   1.013  0.00  0.00    +0.020 A 
ATOM      5  C   LIG    1       -3.987  -0.601   1.335  0.00  0.00    +0.001 A 
ATOM      6  C   LIG    1       -2.941  -1.408   0.986  0.00  0.00    +0.000 A 
ATOM      7 CL   LIG    1       -2.890   3.015   0.017  0.00  0.00    -0.083 Cl
ATOM      8  C   LIG    1       -1.841  -0.817   0.286  0.00  0.00    +0.007 A 
ENDBRANCH   1   2
BRANCH   1   9
ATOM      9  O   LIG    1       -0.947   0.339  -2.190  0.00  0.00    -0.386 OA
ATOM     10  H   LIG    1       -0.955   0.986  -2.914  0.00  0.00    +0.210 HD
ENDBRANCH   1   9
BRANCH   1  11
ATOM     11  C   LIG    1        0.629   0.742  -0.529  0.00  0.00    +0.117 C 
BRANCH  11  12
ATOM     12  N   LIG    1        1.113  -0.549  -0.232  0.00  0.00    -0.311 NA
ATOM     13  H   LIG    1        1.108  -1.285  -0.917  0.00  0.00    +0.122 HD
BRANCH  12  14
ATOM     14  C   LIG    1        2.475  -0.344   0.254  0.00  0.00    +0.048 C 
ATOM     15  C   LIG    1        3.195  -1.580   0.683  0.00  0.00    +0.023 C 
ATOM     16  C   LIG    1        3.338   0.429  -0.702  0.00  0.00    +0.023 C 
ENDBRANCH  12  14
ENDBRANCH  11  12
ENDBRANCH   1  11
TORSDOF 5
