REMARK  Name = molecules/SSOLNOMRVKKSON-UHFFFAOYSA-N.pdb
REMARK                            x       y       z     vdW  Elec       q    Type
REMARK                         _______ _______ _______ _____ _____    ______ ____
ROOT
ATOM      1  C   LIG    1        0.618   0.257  -0.343  0.00  0.00    +0.393 C 
ATOM      2  N   LIG    1        0.614   1.307  -1.083  0.00  0.00    -0.129 NA
ATOM      3  H   LIG    1       -0.033   2.088  -0.936  0.00  0.00    +0.306 HD
ENDROOT
BRANCH   1   4
ATOM      4  N   LIG    1       -0.303   0.174   0.718  0.00  0.00    -0.186 N 
ATOM      5  H   LIG    1       -0.087   0.660   1.608  0.00  0.00    +0.271 HD
BRANCH   4   6
ATOM      6  C   LIG    1       -1.498  -0.573   0.536  0.00  0.00    +0.388 C 
ATOM      7  N   LIG    1       -1.343  -1.715  -0.052  0.00  0.00    -0.129 NA
ATOM      8  H   LIG    1       -2.204  -2.283  -0.198  0.00  0.00    +0.306 HD
BRANCH   6   9
ATOM      9  N   LIG    1       -2.768  -0.113   0.962  0.00  0.00    -0.273 N 
ATOM     10  H   LIG    1       -2.890   0.204   1.943  0.00  0.00    +0.258 HD
BRANCH   9  12
ATOM     11  C   LIG    1       -3.547   0.851  -1.077  0.00  0.00    +0.047 C 
ATOM     12  C   LIG    1       -3.909  -0.067   0.075  0.00  0.00    +0.139 C 
ATOM     13  C   LIG    1       -5.141   0.430   0.759  0.00  0.00    +0.047 C 
ENDBRANCH   9  12
ENDBRANCH   6   9
ENDBRANCH   4   6
ENDBRANCH   1   4
BRANCH   1  14
ATOM     14  N   LIG    1        1.563  -0.764  -0.646  0.00  0.00    -0.243 N 
ATOM     15  H   LIG    1        1.278  -1.704  -1.009  0.00  0.00    +0.265 HD
BRANCH  14  16
ATOM     16  C   LIG    1        2.939  -0.513  -0.454  0.00  0.00    +0.100 A 
ATOM     17  C   LIG    1        3.391   0.697   0.020  0.00  0.00    +0.043 A 
ATOM     18  C   LIG    1        4.742   0.946   0.209  0.00  0.00    +0.023 A 
ATOM     19  C   LIG    1        5.661  -0.041  -0.084  0.00  0.00    +0.041 A 
ATOM     20 CL   LIG    1        7.393   0.205   0.132  0.00  0.00    -0.084 Cl
ATOM     21  C   LIG    1        5.223  -1.243  -0.553  0.00  0.00    +0.023 A 
ATOM     22  C   LIG    1        3.862  -1.487  -0.742  0.00  0.00    +0.043 A 
ENDBRANCH  14  16
ENDBRANCH   1  14
TORSDOF 6
