REMARK  Name = molecules/SSQPWTVBQMWLSZ-AAQCHOMXSA-N.pdb
REMARK                            x       y       z     vdW  Elec       q    Type
REMARK                         _______ _______ _______ _____ _____    ______ ____
ROOT
ATOM      1  C   LIG    1       -0.265   0.046  -0.099  0.00  0.00    -0.027 C 
ATOM      2  C   LIG    1        0.951  -0.242   0.251  0.00  0.00    -0.027 C 
ENDROOT
BRANCH   1   3
ATOM      3  C   LIG    1       -1.303  -0.972  -0.335  0.00  0.00    +0.053 C 
BRANCH   3   5
ATOM      4  C   LIG    1       -3.656  -0.521   0.328  0.00  0.00    -0.031 C 
ATOM      5  C   LIG    1       -2.416  -0.759   0.627  0.00  0.00    -0.027 C 
BRANCH   4   6
ATOM      6  C   LIG    1       -4.138  -0.427  -1.050  0.00  0.00    +0.027 C 
BRANCH   6   7
ATOM      7  C   LIG    1       -5.200  -1.502  -1.258  0.00  0.00    +0.015 C 
BRANCH   7   8
ATOM      8  C   LIG    1       -6.372  -1.391  -0.360  0.00  0.00    +0.121 C 
BRANCH   8   9
ATOM      9  C   LIG    1       -7.131  -0.142  -0.536  0.00  0.00    +0.307 C 
ATOM     10  O   LIG    1       -6.864   0.708  -1.409  0.00  0.00    -0.251 OA
BRANCH   9  11
ATOM     11  O   LIG    1       -8.217   0.148   0.296  0.00  0.00    -0.465 OA
BRANCH  11  12
ATOM     12  C   LIG    1       -8.917   1.350   0.097  0.00  0.00    +0.229 C 
ATOM     13  C   LIG    1       -7.994   2.515   0.276  0.00  0.00    +0.048 C 
ENDBRANCH  11  12
ENDBRANCH   9  11
ENDBRANCH   8   9
ENDBRANCH   7   8
ENDBRANCH   6   7
ENDBRANCH   4   6
ENDBRANCH   3   5
ENDBRANCH   1   3
BRANCH   2  14
ATOM     14  C   LIG    1        1.416  -1.637   0.453  0.00  0.00    +0.053 C 
BRANCH  14  15
ATOM     15  C   LIG    1        2.498  -1.879  -0.488  0.00  0.00    -0.027 C 
ATOM     16  C   LIG    1        3.708  -2.218  -0.128  0.00  0.00    -0.027 C 
BRANCH  16  17
ATOM     17  C   LIG    1        4.127  -2.397   1.219  0.00  0.00    +0.053 C 
BRANCH  17  18
ATOM     18  C   LIG    1        5.110  -1.647   1.920  0.00  0.00    -0.027 C 
ATOM     19  C   LIG    1        5.816  -0.641   1.584  0.00  0.00    -0.027 C 
BRANCH  19  20
ATOM     20  C   LIG    1        5.745   0.023   0.265  0.00  0.00    +0.053 C 
BRANCH  20  21
ATOM     21  C   LIG    1        5.400   1.480   0.499  0.00  0.00    -0.027 C 
ATOM     22  C   LIG    1        6.203   2.417   0.113  0.00  0.00    -0.031 C 
BRANCH  22  23
ATOM     23  C   LIG    1        7.484   2.190  -0.566  0.00  0.00    +0.023 C 
ATOM     24  C   LIG    1        7.376   2.906  -1.937  0.00  0.00    +0.008 C 
ENDBRANCH  22  23
ENDBRANCH  20  21
ENDBRANCH  19  20
ENDBRANCH  17  18
ENDBRANCH  16  17
ENDBRANCH  14  15
ENDBRANCH   2  14
TORSDOF 15
