REMARK  Name = molecules/STDBAQMTJLUMFW-UHFFFAOYSA-N.pdb
REMARK                            x       y       z     vdW  Elec       q    Type
REMARK                         _______ _______ _______ _____ _____    ______ ____
ROOT
ATOM      1  C   LIG    1       -0.972  -0.155   0.053  0.00  0.00    +0.123 C 
ATOM      2  C   LIG    1       -1.790   0.150   1.254  0.00  0.00    +0.235 C 
ATOM      3  O   LIG    1       -2.425  -0.782   1.808  0.00  0.00    -0.274 OA
ATOM      4  N   LIG    1       -1.862   1.468   1.775  0.00  0.00    -0.239 N 
ATOM      5  H   LIG    1       -2.148   1.655   2.774  0.00  0.00    +0.159 HD
ATOM      6  C   LIG    1       -1.534   2.536   0.906  0.00  0.00    +0.312 C 
ATOM      7  O   LIG    1       -1.605   3.718   1.394  0.00  0.00    -0.252 OA
ATOM      8  N   LIG    1       -1.155   2.287  -0.416  0.00  0.00    -0.239 N 
ATOM      9  H   LIG    1       -0.915   3.093  -1.049  0.00  0.00    +0.159 HD
ATOM     10  C   LIG    1       -1.085   0.982  -0.926  0.00  0.00    +0.235 C 
ATOM     11  O   LIG    1       -1.114   0.723  -2.169  0.00  0.00    -0.274 OA
ENDROOT
BRANCH   1  12
ATOM     12  C   LIG    1       -1.502  -1.372  -0.631  0.00  0.00    +0.022 C 
ATOM     13  C   LIG    1       -1.449  -2.632   0.145  0.00  0.00    +0.005 C 
ENDBRANCH   1  12
BRANCH   1  14
ATOM     14  C   LIG    1        0.458  -0.225   0.459  0.00  0.00    +0.025 C 
BRANCH  14  15
ATOM     15  C   LIG    1        1.361  -0.440  -0.743  0.00  0.00    +0.001 C 
BRANCH  15  16
ATOM     16  C   LIG    1        2.806  -0.499  -0.235  0.00  0.00    -0.003 C 
ATOM     17  C   LIG    1        3.115   0.807   0.447  0.00  0.00    +0.004 C 
ENDBRANCH  15  16
ENDBRANCH  14  15
ENDBRANCH   1  14
TORSDOF 4
