REMARK  Name = molecules/STUWGJZDJHPWGZ-LBPRGKRZSA-N.pdb
REMARK                            x       y       z     vdW  Elec       q    Type
REMARK                         _______ _______ _______ _____ _____    ______ ____
ROOT
ATOM      1  C   LIG    1        1.444   0.364  -0.004  0.00  0.00    +0.166 A 
ATOM      2  S   LIG    1        0.322  -0.720   0.653  0.00  0.00    -0.052 S 
ATOM      3  C   LIG    1       -1.141  -0.010   0.001  0.00  0.00    +0.044 A 
ATOM      4  C   LIG    1       -0.617   1.033  -0.688  0.00  0.00    +0.055 A 
ATOM      5  C   LIG    1       -1.480   1.998  -1.494  0.00  0.00    +0.067 C 
ATOM      6  N   LIG    1        0.677   1.196  -0.672  0.00  0.00    -0.229 NA
ENDROOT
BRANCH   1   7
ATOM      7  N   LIG    1        2.884   0.430   0.102  0.00  0.00    -0.248 N 
ATOM      8  C   LIG    1        3.539  -0.527   0.914  0.00  0.00    +0.309 C 
ATOM      9  O   LIG    1        2.870  -1.394   1.552  0.00  0.00    -0.252 OA
ATOM     10  N   LIG    1        4.953  -0.490   0.994  0.00  0.00    -0.274 N 
ATOM     11  C   LIG    1        5.747  -1.390   1.811  0.00  0.00    +0.110 C 
ATOM     12  C   LIG    1        7.167  -0.896   1.659  0.00  0.00    +0.021 C 
ATOM     13  C   LIG    1        6.961   0.557   1.269  0.00  0.00    +0.033 C 
ATOM     14  C   LIG    1        5.827   0.419   0.278  0.00  0.00    +0.163 C 
ATOM     15  H   LIG    1        3.395   1.149  -0.426  0.00  0.00    +0.158 HD
BRANCH  14  16
ATOM     16  C   LIG    1        6.287  -0.176  -1.000  0.00  0.00    +0.231 C 
ATOM     17  O   LIG    1        5.903  -1.350  -1.340  0.00  0.00    -0.274 OA
ATOM     18  N   LIG    1        7.149   0.491  -1.895  0.00  0.00    -0.328 N 
ATOM     19  H   LIG    1        8.134   0.659  -1.632  0.00  0.00    +0.145 HD
ATOM     20  H   LIG    1        6.805   0.811  -2.810  0.00  0.00    +0.145 HD
ENDBRANCH  14  16
ENDBRANCH   1   7
BRANCH   3  21
ATOM     21  C   LIG    1       -2.490  -0.540   0.196  0.00  0.00    -0.006 A 
ATOM     22  C   LIG    1       -2.624  -1.809   0.778  0.00  0.00    +0.029 A 
ATOM     23  C   LIG    1       -3.830  -2.431   0.974  0.00  0.00    +0.111 A 
ATOM     24  N   LIG    1       -4.953  -1.783   0.585  0.00  0.00    -0.259 NA
ATOM     25  C   LIG    1       -4.880  -0.551   0.017  0.00  0.00    +0.056 A 
ATOM     26  C   LIG    1       -3.639   0.070  -0.176  0.00  0.00    +0.033 A 
BRANCH  25  27
ATOM     27  C   LIG    1       -6.100   0.153  -0.402  0.00  0.00    +0.102 C 
ATOM     28  C   LIG    1       -6.366   1.376   0.461  0.00  0.00    +0.026 C 
ATOM     29  C   LIG    1       -7.298  -0.786  -0.198  0.00  0.00    +0.026 C 
BRANCH  27  30
ATOM     30  C   LIG    1       -6.129   0.598  -1.829  0.00  0.00    +0.400 C 
ATOM     31  F   LIG    1       -7.357   1.242  -2.050  0.00  0.00    -0.170 F 
ATOM     32  F   LIG    1       -5.144   1.466  -2.195  0.00  0.00    -0.170 F 
ATOM     33  F   LIG    1       -6.148  -0.522  -2.671  0.00  0.00    -0.170 F 
ENDBRANCH  27  30
ENDBRANCH  25  27
ENDBRANCH   3  21
TORSDOF 5
