REMARK  Name = molecules/STZYTFJPGGDRJD-NHUWBDDWSA-N.pdb
REMARK                            x       y       z     vdW  Elec       q    Type
REMARK                         _______ _______ _______ _____ _____    ______ ____
ROOT
ATOM      1  C   LIG    1       -0.991   0.254  -0.914  0.00  0.00    +0.184 C 
ATOM      2  C   LIG    1       -1.584  -1.065  -0.596  0.00  0.00    +0.018 C 
ATOM      3  C   LIG    1       -2.466  -1.010   0.648  0.00  0.00    +0.071 C 
ATOM      4  C   LIG    1       -2.356  -2.201   1.520  0.00  0.00    +0.138 C 
ATOM      5  O   LIG    1       -1.376  -2.778   1.931  0.00  0.00    -0.297 OA
ATOM      6  C   LIG    1       -3.730  -2.683   1.893  0.00  0.00    +0.075 C 
ATOM      7  C   LIG    1       -4.513  -1.429   1.687  0.00  0.00    +0.015 C 
ATOM      8  C   LIG    1       -3.893  -0.832   0.398  0.00  0.00    -0.014 C 
ATOM      9  C   LIG    1       -4.503   0.510   0.347  0.00  0.00    +0.022 C 
ATOM     10  C   LIG    1       -4.863   1.080   1.737  0.00  0.00    +0.011 C 
ATOM     11  C   LIG    1       -4.118   1.546  -0.592  0.00  0.00    +0.128 C 
ATOM     12  C   LIG    1       -2.765   2.126  -0.684  0.00  0.00    +0.015 C 
ATOM     13  C   LIG    1       -2.286   2.783   0.597  0.00  0.00    +0.018 C 
ATOM     14  C   LIG    1       -4.357  -1.749  -0.708  0.00  0.00    +0.008 C 
ATOM     15  C   LIG    1       -3.349  -2.644  -1.289  0.00  0.00    +0.004 C 
ATOM     16  C   LIG    1       -0.342  -1.858  -0.100  0.00  0.00    +0.016 C 
ATOM     17  C   LIG    1       -2.097  -1.900  -1.697  0.00  0.00    -0.004 C 
ATOM     18  C   LIG    1       -2.386  -1.253  -3.018  0.00  0.00    +0.008 C 
ATOM     19  C   LIG    1       -1.735   1.379  -1.418  0.00  0.00    +0.058 C 
ENDROOT
BRANCH  12  20
ATOM     20  C   LIG    1       -2.982   3.340  -1.577  0.00  0.00    -0.025 C 
ATOM     21  C   LIG    1       -3.685   4.361  -1.129  0.00  0.00    +0.004 C 
ENDBRANCH  12  20
BRANCH  11  22
ATOM     22  O   LIG    1       -4.619   1.352  -1.878  0.00  0.00    -0.391 OA
ATOM     23  H   LIG    1       -4.105   1.762  -2.583  0.00  0.00    +0.210 HD
ENDBRANCH  11  22
BRANCH   1  24
ATOM     24  O   LIG    1       -0.222   0.650   0.207  0.00  0.00    -0.460 OA
BRANCH  24  25
ATOM     25  C   LIG    1        1.159   0.858   0.197  0.00  0.00    +0.317 C 
ATOM     26  O   LIG    1        1.720   0.687  -0.901  0.00  0.00    -0.250 OA
BRANCH  25  27
ATOM     27  C   LIG    1        1.893   1.256   1.410  0.00  0.00    +0.189 C 
BRANCH  27  28
ATOM     28  S   LIG    1        3.065   0.114   2.064  0.00  0.00    -0.146 S 
BRANCH  28  30
ATOM     29  C   LIG    1        5.523   1.109   1.333  0.00  0.00    +0.033 C 
ATOM     30  C   LIG    1        4.607  -0.111   1.254  0.00  0.00    +0.050 C 
ATOM     31  C   LIG    1        4.575  -0.634  -0.156  0.00  0.00    +0.033 C 
ATOM     32  C   LIG    1        6.007  -0.969  -0.565  0.00  0.00    +0.058 C 
ATOM     33  C   LIG    1        6.760  -1.735   0.473  0.00  0.00    +0.020 C 
ATOM     34  C   LIG    1        7.334  -0.650   1.345  0.00  0.00    +0.020 C 
ATOM     35  N   LIG    1        6.732   0.304  -0.647  0.00  0.00    -0.299 NA
ATOM     36  C   LIG    1        8.052   0.141  -1.199  0.00  0.00    +0.105 C 
ATOM     37  C   LIG    1        6.853   0.656   0.760  0.00  0.00    +0.058 C 
ENDBRANCH  28  30
ENDBRANCH  27  28
ENDBRANCH  25  27
ENDBRANCH  24  25
ENDBRANCH   1  24
TORSDOF 7
