REMARK  Name = molecules/SUAJWTBTMNHVBZ-GSVOUGTGSA-N.pdb
REMARK                            x       y       z     vdW  Elec       q    Type
REMARK                         _______ _______ _______ _____ _____    ______ ____
ROOT
ATOM      1  C   LIG    1       -0.526  -0.218   0.051  0.00  0.00    +0.263 C 
ENDROOT
BRANCH   1   2
ATOM      2  C   LIG    1       -1.402  -1.394  -0.202  0.00  0.00    +0.159 C 
ATOM      3 CL   LIG    1       -0.737  -2.619  -1.277  0.00  0.00    -0.121 Cl
ENDBRANCH   1   2
BRANCH   1   4
ATOM      4  C   LIG    1        0.782  -0.618   0.706  0.00  0.00    +0.315 C 
BRANCH   4   5
ATOM      5  O   LIG    1        1.546   0.592   0.546  0.00  0.00    -0.348 OA
BRANCH   5   6
ATOM      6  N   LIG    1        2.739   0.547  -0.150  0.00  0.00    +0.217 N 
ATOM      7  O   LIG    1        3.670   1.470   0.053  0.00  0.00    -0.090 OA
ATOM      8  O   LIG    1        2.765  -0.307  -1.042  0.00  0.00    -0.090 OA
ENDBRANCH   5   6
ENDBRANCH   4   5
ENDBRANCH   1   4
BRANCH   1   9
ATOM      9  O   LIG    1       -1.199   0.835   0.631  0.00  0.00    -0.344 OA
BRANCH   9  10
ATOM     10  N   LIG    1       -1.678   1.912  -0.111  0.00  0.00    +0.218 N 
ATOM     11  O   LIG    1       -1.376   3.186   0.224  0.00  0.00    -0.090 OA
ATOM     12  O   LIG    1       -2.450   1.740  -1.078  0.00  0.00    -0.090 OA
ENDBRANCH   9  10
ENDBRANCH   1   9
TORSDOF 6
