REMARK  Name = molecules/SUBDBMMJDZJVOS-DEOSSOPVSA-N.pdb
REMARK                            x       y       z     vdW  Elec       q    Type
REMARK                         _______ _______ _______ _____ _____    ______ ____
ROOT
ATOM      1  S   LIG    1       -0.078   0.555   0.931  0.00  0.00    +0.030 S 
ATOM      2  O   LIG    1       -0.471   2.101   1.163  0.00  0.00    -0.154 OA
ENDROOT
BRANCH   1   3
ATOM      3  C   LIG    1        1.667   0.776   0.610  0.00  0.00    +0.186 A 
ATOM      4  N   LIG    1        2.537   1.681   0.990  0.00  0.00    -0.221 NA
ATOM      5  C   LIG    1        3.826   1.237   0.720  0.00  0.00    +0.090 A 
ATOM      6  C   LIG    1        5.084   1.706   0.996  0.00  0.00    +0.033 A 
ATOM      7  C   LIG    1        6.150   0.880   0.678  0.00  0.00    +0.048 A 
ATOM      8  C   LIG    1        6.005  -0.360   0.101  0.00  0.00    +0.122 A 
ATOM      9  C   LIG    1        4.720  -0.803  -0.184  0.00  0.00    +0.073 A 
ATOM     10  C   LIG    1        3.634   0.001   0.135  0.00  0.00    +0.070 A 
ATOM     11  N   LIG    1        2.343  -0.295   0.064  0.00  0.00    -0.332 N 
ATOM     12  H   LIG    1        1.870  -1.126  -0.319  0.00  0.00    +0.168 HD
BRANCH   8  13
ATOM     13  O   LIG    1        7.030  -1.218  -0.213  0.00  0.00    -0.495 OA
ATOM     14  C   LIG    1        8.387  -0.873   0.080  0.00  0.00    +0.277 C 
ENDBRANCH   8  13
ENDBRANCH   1   3
BRANCH   1  15
ATOM     15  C   LIG    1       -0.841   0.371  -0.778  0.00  0.00    +0.153 C 
BRANCH  15  16
ATOM     16  C   LIG    1       -2.209  -0.087  -0.411  0.00  0.00    +0.059 A 
ATOM     17  N   LIG    1       -2.187  -1.446   0.016  0.00  0.00    -0.258 NA
ATOM     18  C   LIG    1       -3.257  -2.132   0.231  0.00  0.00    +0.118 A 
ATOM     19  C   LIG    1       -4.521  -1.561   0.072  0.00  0.00    +0.010 A 
ATOM     20  C   LIG    1       -5.647  -2.463   0.386  0.00  0.00    +0.049 C 
ATOM     21  C   LIG    1       -4.620  -0.266  -0.319  0.00  0.00    +0.129 A 
ATOM     22  C   LIG    1       -3.439   0.420  -0.548  0.00  0.00    +0.014 A 
ATOM     23  C   LIG    1       -3.552   1.883  -0.847  0.00  0.00    +0.049 C 
BRANCH  21  24
ATOM     24  O   LIG    1       -5.818   0.352  -0.480  0.00  0.00    -0.494 OA
ATOM     25  C   LIG    1       -6.566   1.068   0.468  0.00  0.00    +0.277 C 
ENDBRANCH  21  24
ENDBRANCH  15  16
ENDBRANCH   1  15
TORSDOF 5
