REMARK  Name = molecules/SUBDBMMJDZJVOS-XMMPIXPASA-N.pdb
REMARK                            x       y       z     vdW  Elec       q    Type
REMARK                         _______ _______ _______ _____ _____    ______ ____
ROOT
ATOM      1  S   LIG    1       -0.263  -0.646  -0.181  0.00  0.00    +0.030 S 
ATOM      2  O   LIG    1       -0.759  -1.491  -1.293  0.00  0.00    -0.154 OA
ENDROOT
BRANCH   1   8
ATOM      3  C   LIG    1        5.992   0.223  -0.057  0.00  0.00    +0.122 A 
ATOM      4  C   LIG    1        4.763   0.864   0.004  0.00  0.00    +0.073 A 
ATOM      5  C   LIG    1        3.567   0.165  -0.002  0.00  0.00    +0.070 A 
ATOM      6  N   LIG    1        2.286   0.520   0.005  0.00  0.00    -0.332 N 
ATOM      7  H   LIG    1        1.972   1.514   0.058  0.00  0.00    +0.168 HD
ATOM      8  C   LIG    1        1.492  -0.568  -0.057  0.00  0.00    +0.186 A 
ATOM      9  N   LIG    1        2.333  -1.642  -0.097  0.00  0.00    -0.221 NA
ATOM     10  C   LIG    1        3.597  -1.197  -0.067  0.00  0.00    +0.090 A 
ATOM     11  C   LIG    1        4.832  -1.858  -0.128  0.00  0.00    +0.033 A 
ATOM     12  C   LIG    1        6.015  -1.165  -0.123  0.00  0.00    +0.048 A 
BRANCH   3  14
ATOM     13  C   LIG    1        8.453   0.418  -0.124  0.00  0.00    +0.277 C 
ATOM     14  O   LIG    1        7.150   0.951  -0.054  0.00  0.00    -0.495 OA
ENDBRANCH   3  14
ENDBRANCH   1   8
BRANCH   1  15
ATOM     15  C   LIG    1       -0.935   1.017  -0.113  0.00  0.00    +0.153 C 
BRANCH  15  16
ATOM     16  C   LIG    1       -2.406   1.012  -0.285  0.00  0.00    +0.059 A 
ATOM     17  C   LIG    1       -3.210   0.234   0.485  0.00  0.00    +0.014 A 
ATOM     18  C   LIG    1       -2.644  -0.669   1.488  0.00  0.00    +0.049 C 
ATOM     19  C   LIG    1       -4.558   0.317   0.260  0.00  0.00    +0.129 A 
ATOM     20  C   LIG    1       -5.079   1.147  -0.699  0.00  0.00    +0.010 A 
ATOM     21  C   LIG    1       -6.534   1.196  -0.926  0.00  0.00    +0.049 C 
ATOM     22  C   LIG    1       -4.237   1.915  -1.456  0.00  0.00    +0.118 A 
ATOM     23  N   LIG    1       -2.918   1.836  -1.236  0.00  0.00    -0.258 NA
BRANCH  19  24
ATOM     24  O   LIG    1       -5.366  -0.508   1.074  0.00  0.00    -0.494 OA
ATOM     25  C   LIG    1       -5.592  -1.805   0.500  0.00  0.00    +0.277 C 
ENDBRANCH  19  24
ENDBRANCH  15  16
ENDBRANCH   1  15
TORSDOF 5
