REMARK  Name = molecules/SUWYPNNPLSRNPS-UNTSEYQFSA-N.pdb
REMARK                            x       y       z     vdW  Elec       q    Type
REMARK                         _______ _______ _______ _____ _____    ______ ____
ROOT
ATOM      1  C   LIG    1       -0.992  -1.390  -1.675  0.00  0.00    -0.048 C 
ATOM      2  C   LIG    1       -1.407  -0.184  -1.302  0.00  0.00    -0.025 C 
ENDROOT
BRANCH   1   3
ATOM      3  C   LIG    1       -1.577  -2.574  -1.026  0.00  0.00    +0.186 C 
BRANCH   3   4
ATOM      4  O   LIG    1       -2.182  -3.322  -2.051  0.00  0.00    -0.391 OA
ATOM      5  H   LIG    1       -2.342  -4.252  -1.794  0.00  0.00    +0.210 HD
ENDBRANCH   3   4
ENDBRANCH   1   3
BRANCH   2   6
ATOM      6  C   LIG    1       -2.384   0.159  -0.280  0.00  0.00    +0.031 C 
BRANCH   6   7
ATOM      7  C   LIG    1       -3.531   0.937  -0.955  0.00  0.00    +0.034 C 
BRANCH   7   8
ATOM      8  C   LIG    1       -4.556   1.310   0.050  0.00  0.00    -0.074 C 
ATOM      9  C   LIG    1       -5.270   0.284   0.829  0.00  0.00    +0.039 C 
ATOM     10  C   LIG    1       -4.819   2.613   0.232  0.00  0.00    -0.001 C 
BRANCH  10  11
ATOM     11  C   LIG    1       -5.834   3.053   1.222  0.00  0.00    +0.183 C 
BRANCH  11  12
ATOM     12  O   LIG    1       -6.856   3.775   0.587  0.00  0.00    -0.391 OA
ATOM     13  H   LIG    1       -7.378   4.310   1.210  0.00  0.00    +0.210 HD
ENDBRANCH  11  12
ENDBRANCH  10  11
ENDBRANCH   7   8
ENDBRANCH   6   7
ENDBRANCH   2   6
BRANCH   1  14
ATOM     14  C   LIG    1        0.008  -1.509  -2.735  0.00  0.00    +0.037 C 
BRANCH  14  15
ATOM     15  C   LIG    1        1.315  -2.151  -2.365  0.00  0.00    +0.031 C 
BRANCH  15  16
ATOM     16  C   LIG    1        2.004  -1.387  -1.307  0.00  0.00    -0.028 C 
ATOM     17  C   LIG    1        2.456  -1.952  -0.218  0.00  0.00    -0.076 C 
ATOM     18  C   LIG    1        2.312  -3.425  -0.040  0.00  0.00    +0.039 C 
BRANCH  17  19
ATOM     19  C   LIG    1        3.157  -1.138   0.853  0.00  0.00    +0.034 C 
BRANCH  19  20
ATOM     20  C   LIG    1        3.201   0.282   0.400  0.00  0.00    +0.031 C 
BRANCH  20  21
ATOM     21  C   LIG    1        3.880   1.070   1.460  0.00  0.00    -0.028 C 
ATOM     22  C   LIG    1        4.973   1.718   1.190  0.00  0.00    -0.080 C 
ATOM     23  C   LIG    1        5.645   2.502   2.250  0.00  0.00    +0.038 C 
ATOM     24  C   LIG    1        5.567   1.690  -0.161  0.00  0.00    +0.038 C 
ENDBRANCH  20  21
ENDBRANCH  19  20
ENDBRANCH  17  19
ENDBRANCH  15  16
ENDBRANCH  14  15
ENDBRANCH   1  14
TORSDOF 13
