REMARK  Name = molecules/SUWZHLCNFQWNPE-LATRNWQMSA-N.pdb
REMARK                            x       y       z     vdW  Elec       q    Type
REMARK                         _______ _______ _______ _____ _____    ______ ____
ROOT
ATOM      1  C   LIG    1       -0.035  -0.198  -0.339  0.00  0.00    +0.162 C 
ENDROOT
BRANCH   1   2
ATOM      2  C   LIG    1       -0.752  -1.280   0.348  0.00  0.00    -0.007 A 
ATOM      3  C   LIG    1       -0.127  -2.307   1.011  0.00  0.00    +0.026 A 
ATOM      4  C   LIG    1       -0.900  -3.259   1.637  0.00  0.00    +0.112 A 
ATOM      5  N   LIG    1       -2.237  -3.204   1.612  0.00  0.00    -0.255 NA
ATOM      6  C   LIG    1       -2.880  -2.206   0.968  0.00  0.00    +0.072 A 
ATOM      7  C   LIG    1       -4.271  -2.203   0.970  0.00  0.00    +0.032 A 
ATOM      8  C   LIG    1       -4.978  -1.215   0.323  0.00  0.00    +0.048 A 
ATOM      9  C   LIG    1       -4.262  -0.235  -0.324  0.00  0.00    +0.121 A 
ATOM     10  C   LIG    1       -2.863  -0.249  -0.317  0.00  0.00    +0.056 A 
ATOM     11  C   LIG    1       -2.151  -1.234   0.329  0.00  0.00    +0.010 A 
BRANCH   9  12
ATOM     12  O   LIG    1       -4.932   0.764  -0.978  0.00  0.00    -0.492 OA
BRANCH  12  13
ATOM     13  C   LIG    1       -6.338   0.808  -1.004  0.00  0.00    +0.225 C 
ATOM     14  C   LIG    1       -6.852   1.992  -1.779  0.00  0.00    +0.048 C 
ENDBRANCH  12  13
ENDBRANCH   9  12
ENDBRANCH   1   2
BRANCH   1  15
ATOM     15  C   LIG    1        1.434  -0.343  -0.482  0.00  0.00    +0.090 C 
ATOM     16  C   LIG    1        2.232  -0.247   0.787  0.00  0.00    +0.025 C 
ATOM     17  C   LIG    1        3.228   0.918   0.749  0.00  0.00    -0.004 C 
ATOM     18  C   LIG    1        2.429   2.172   0.492  0.00  0.00    +0.019 C 
ATOM     19  C   LIG    1        1.875   2.004  -0.916  0.00  0.00    +0.085 C 
ATOM     20  C   LIG    1        4.176   0.775  -0.418  0.00  0.00    +0.006 C 
ATOM     21  C   LIG    1        3.377   0.287  -1.594  0.00  0.00    +0.088 C 
ATOM     22  N   LIG    1        1.993   0.660  -1.386  0.00  0.00    -0.296 NA
BRANCH  20  23
ATOM     23  C   LIG    1        5.315  -0.171  -0.126  0.00  0.00    +0.002 C 
ATOM     24  C   LIG    1        6.181  -0.216  -1.367  0.00  0.00    +0.004 C 
ENDBRANCH  20  23
ENDBRANCH   1  15
BRANCH   1  25
ATOM     25  O   LIG    1       -0.419   1.021   0.215  0.00  0.00    -0.386 OA
ATOM     26  H   LIG    1       -0.707   0.932   1.168  0.00  0.00    +0.210 HD
ENDBRANCH   1  25
TORSDOF 6
