REMARK  Name = molecules/SVEBYYWCXTVYCR-LBPRGKRZSA-N.pdb
REMARK                            x       y       z     vdW  Elec       q    Type
REMARK                         _______ _______ _______ _____ _____    ______ ____
ROOT
ATOM      1  C   LIG    1       -0.325  -0.374  -0.963  0.00  0.00    +0.068 C 
ENDROOT
BRANCH   1   7
ATOM      2  C   LIG    1       -2.457   0.728  -0.464  0.00  0.00    +0.053 A 
ATOM      3  C   LIG    1       -3.745   0.736   0.029  0.00  0.00    +0.158 A 
ATOM      4  C   LIG    1       -4.221  -0.446   0.557  0.00  0.00    +0.158 A 
ATOM      5  C   LIG    1       -3.464  -1.590   0.599  0.00  0.00    +0.049 A 
ATOM      6  C   LIG    1       -2.176  -1.607   0.109  0.00  0.00    +0.007 A 
ATOM      7  C   LIG    1       -1.682  -0.433  -0.424  0.00  0.00    -0.041 A 
BRANCH   4   8
ATOM      8  O   LIG    1       -5.517  -0.497   1.071  0.00  0.00    -0.503 OA
ATOM      9  H   LIG    1       -6.115   0.334   1.058  0.00  0.00    +0.292 HD
ENDBRANCH   4   8
BRANCH   3  10
ATOM     10  O   LIG    1       -4.567   1.846   0.022  0.00  0.00    -0.503 OA
ATOM     11  H   LIG    1       -4.301   2.744  -0.343  0.00  0.00    +0.292 HD
ENDBRANCH   3  10
ENDBRANCH   1   7
BRANCH   1  12
ATOM     12  C   LIG    1        0.715   0.014   0.056  0.00  0.00    +0.116 C 
ATOM     13  C   LIG    1        0.756  -1.113   1.094  0.00  0.00    +0.040 C 
BRANCH  12  14
ATOM     14  N   LIG    1        0.475   1.284   0.659  0.00  0.00    -0.316 NA
ATOM     15  H   LIG    1        0.477   1.208   1.702  0.00  0.00    +0.119 HD
ATOM     16  H   LIG    1        1.175   2.016   0.411  0.00  0.00    +0.119 HD
ENDBRANCH  12  14
BRANCH  12  17
ATOM     17  C   LIG    1        2.058   0.049  -0.580  0.00  0.00    +0.327 C 
ATOM     18  O   LIG    1        2.450  -1.004  -1.173  0.00  0.00    -0.249 OA
BRANCH  17  19
ATOM     19  O   LIG    1        2.865   1.180  -0.537  0.00  0.00    -0.464 OA
BRANCH  19  20
ATOM     20  C   LIG    1        4.140   1.130  -1.174  0.00  0.00    +0.229 C 
ATOM     21  C   LIG    1        4.932   0.029  -0.515  0.00  0.00    +0.048 C 
ENDBRANCH  19  20
ENDBRANCH  17  19
ENDBRANCH  12  17
ENDBRANCH   1  12
TORSDOF 8
