REMARK  Name = molecules/SVJMLYUFVDMUHP-MGBGTMOVSA-N.pdb
REMARK                            x       y       z     vdW  Elec       q    Type
REMARK                         _______ _______ _______ _____ _____    ______ ____
ROOT
ATOM      1  C   LIG    1        2.495   0.470   2.434  0.00  0.00    +0.338 C 
ATOM      2  O   LIG    1        1.964  -0.033   3.443  0.00  0.00    -0.245 OA
ENDROOT
BRANCH   1   3
ATOM      3  C   LIG    1        3.964   0.515   2.217  0.00  0.00    +0.065 C 
ATOM      4  C   LIG    1        4.784   0.012   3.107  0.00  0.00    +0.016 C 
ATOM      5  C   LIG    1        4.227  -0.614   4.355  0.00  0.00    +0.061 C 
ATOM      6  N   LIG    1        6.192   0.052   2.919  0.00  0.00    -0.321 N 
ATOM      7  H   LIG    1        6.823  -0.355   3.643  0.00  0.00    +0.152 HD
ATOM      8  C   LIG    1        6.676   0.659   1.726  0.00  0.00    +0.016 C 
ATOM      9  C   LIG    1        8.146   0.720   1.480  0.00  0.00    +0.061 C 
ATOM     10  C   LIG    1        5.875   1.165   0.827  0.00  0.00    +0.065 C 
ATOM     11  C   LIG    1        4.432   1.146   0.974  0.00  0.00    +0.096 C 
BRANCH  11  12
ATOM     12  C   LIG    1        3.887   0.278  -0.148  0.00  0.00    -0.033 A 
ATOM     13  C   LIG    1        4.252  -1.037  -0.300  0.00  0.00    +0.037 A 
ATOM     14  C   LIG    1        3.763  -1.827  -1.324  0.00  0.00    +0.126 A 
ATOM     15  C   LIG    1        2.882  -1.286  -2.222  0.00  0.00    +0.033 A 
ATOM     16  C   LIG    1        2.493   0.019  -2.105  0.00  0.00    +0.003 A 
ATOM     17  C   LIG    1        3.002   0.779  -1.071  0.00  0.00    +0.005 A 
BRANCH  14  18
ATOM     18  N   LIG    1        4.203  -3.174  -1.397  0.00  0.00    +0.056 N 
ATOM     19  O   LIG    1        5.013  -3.591  -0.557  0.00  0.00    -0.126 OA
ATOM     20  O   LIG    1        3.780  -4.047  -2.363  0.00  0.00    -0.126 OA
ENDBRANCH  14  18
ENDBRANCH  11  12
BRANCH  10  21
ATOM     21  C   LIG    1        6.465   1.776  -0.385  0.00  0.00    +0.337 C 
ATOM     22  O   LIG    1        5.630   2.254  -1.230  0.00  0.00    -0.245 OA
BRANCH  21  23
ATOM     23  O   LIG    1        7.795   1.863  -0.658  0.00  0.00    -0.465 OA
ATOM     24  C   LIG    1        8.219   2.474  -1.860  0.00  0.00    +0.280 C 
ENDBRANCH  21  23
ENDBRANCH  10  21
ENDBRANCH   1   3
BRANCH   1  25
ATOM     25  O   LIG    1        1.690   1.021   1.458  0.00  0.00    -0.461 OA
BRANCH  25  26
ATOM     26  C   LIG    1        0.290   1.026   1.578  0.00  0.00    +0.234 C 
BRANCH  26  27
ATOM     27  C   LIG    1       -0.230  -0.372   1.617  0.00  0.00    +0.056 C 
BRANCH  27  28
ATOM     28  C   LIG    1       -1.738  -0.414   1.763  0.00  0.00    +0.087 C 
BRANCH  28  29
ATOM     29  N   LIG    1       -2.460   0.229   0.725  0.00  0.00    -0.302 NA
ATOM     30  C   LIG    1       -3.810   0.523   1.161  0.00  0.00    +0.085 C 
ATOM     31  C   LIG    1       -4.765  -0.506   0.558  0.00  0.00    +0.031 C 
ATOM     32  C   LIG    1       -4.904  -0.280  -0.910  0.00  0.00    +0.023 C 
ATOM     33  C   LIG    1       -3.547   0.136  -1.461  0.00  0.00    +0.031 C 
ATOM     34  C   LIG    1       -2.414  -0.386  -0.564  0.00  0.00    +0.085 C 
BRANCH  32  35
ATOM     35  C   LIG    1       -5.837   0.831  -1.169  0.00  0.00    -0.037 A 
ATOM     36  C   LIG    1       -6.958   1.046  -0.412  0.00  0.00    +0.004 A 
ATOM     37  C   LIG    1       -7.812   2.114  -0.711  0.00  0.00    +0.000 A 
ATOM     38  C   LIG    1       -7.569   2.974  -1.751  0.00  0.00    +0.000 A 
ATOM     39  C   LIG    1       -6.447   2.758  -2.508  0.00  0.00    +0.000 A 
ATOM     40  C   LIG    1       -5.595   1.692  -2.211  0.00  0.00    +0.004 A 
ENDBRANCH  32  35
BRANCH  32  41
ATOM     41  C   LIG    1       -5.432  -1.465  -1.623  0.00  0.00    -0.037 A 
ATOM     42  C   LIG    1       -5.863  -2.589  -0.959  0.00  0.00    +0.004 A 
ATOM     43  C   LIG    1       -6.360  -3.696  -1.652  0.00  0.00    +0.000 A 
ATOM     44  C   LIG    1       -6.428  -3.680  -3.030  0.00  0.00    +0.000 A 
ATOM     45  C   LIG    1       -5.995  -2.552  -3.682  0.00  0.00    +0.000 A 
ATOM     46  C   LIG    1       -5.499  -1.447  -2.989  0.00  0.00    +0.004 A 
ENDBRANCH  32  41
ENDBRANCH  28  29
ENDBRANCH  27  28
ENDBRANCH  26  27
ENDBRANCH  25  26
ENDBRANCH   1  25
TORSDOF 12
