REMARK  Name = molecules/SVXZTCUBEFUKRQ-UHFFFAOYSA-N.pdb
REMARK                            x       y       z     vdW  Elec       q    Type
REMARK                         _______ _______ _______ _____ _____    ______ ____
ROOT
ATOM      1  C   LIG    1       -1.469  -0.886  -0.974  0.00  0.00    +0.159 A 
ATOM      2  C   LIG    1       -2.566  -1.241  -0.197  0.00  0.00    +0.081 A 
ATOM      3  C   LIG    1       -3.426  -0.275   0.279  0.00  0.00    +0.162 A 
ATOM      4  C   LIG    1       -3.168   1.040  -0.036  0.00  0.00    +0.144 A 
ATOM      5  C   LIG    1       -2.065   1.398  -0.816  0.00  0.00    +0.051 A 
ATOM      6  C   LIG    1       -1.205   0.430  -1.292  0.00  0.00    +0.052 A 
ENDROOT
BRANCH   3   7
ATOM      7  S   LIG    1       -4.820  -0.655   1.258  0.00  0.00    +0.113 S 
ATOM      8  O   LIG    1       -4.912  -2.127   1.539  0.00  0.00    -0.142 OA
ATOM      9  O   LIG    1       -6.090  -0.175   0.629  0.00  0.00    -0.142 OA
BRANCH   7  10
ATOM     10  O   LIG    1       -4.699   0.116   2.767  0.00  0.00    -0.250 OA
ATOM     11  H   LIG    1       -3.728   0.182   2.952  0.00  0.00    +0.245 HD
ENDBRANCH   7  10
ENDBRANCH   3   7
BRANCH   4  12
ATOM     12  O   LIG    1       -4.009   2.029   0.426  0.00  0.00    -0.505 OA
ATOM     13  H   LIG    1       -4.814   1.796   0.992  0.00  0.00    +0.292 HD
ENDBRANCH   4  12
BRANCH   1  14
ATOM     14  O   LIG    1       -0.591  -1.843  -1.463  0.00  0.00    -0.342 OA
BRANCH  14  15
ATOM     15  S   LIG    1        0.783  -2.356  -0.617  0.00  0.00    +0.151 S 
ATOM     16  O   LIG    1        0.309  -2.749   0.776  0.00  0.00    -0.131 OA
ATOM     17  O   LIG    1        1.371  -3.572  -1.228  0.00  0.00    -0.131 OA
BRANCH  15  18
ATOM     18  C   LIG    1        1.992  -1.114  -0.491  0.00  0.00    +0.128 A 
ATOM     19  C   LIG    1        1.962  -0.261   0.586  0.00  0.00    +0.031 A 
ATOM     20  C   LIG    1        2.905   0.739   0.722  0.00  0.00    +0.005 A 
ATOM     21  C   LIG    1        3.912   0.933  -0.202  0.00  0.00    -0.050 A 
ATOM     22  C   LIG    1        4.928   2.006  -0.061  0.00  0.00    +0.044 C 
ATOM     23  C   LIG    1        3.938   0.074  -1.282  0.00  0.00    +0.005 A 
ATOM     24  C   LIG    1        2.994  -0.929  -1.420  0.00  0.00    +0.031 A 
ENDBRANCH  15  18
ENDBRANCH  14  15
ENDBRANCH   1  14
TORSDOF 6
