REMARK  Name = molecules/SVYBEBLNQGDRHF-UHFFFAOYSA-N.pdb
REMARK                            x       y       z     vdW  Elec       q    Type
REMARK                         _______ _______ _______ _____ _____    ______ ____
ROOT
ATOM      1  S   LIG    1       -0.967  -2.777   0.273  0.00  0.00    +0.074 S 
ATOM      2  O   LIG    1       -1.684  -3.735   1.209  0.00  0.00    -0.150 OA
ATOM      3  O   LIG    1       -0.711  -3.454  -1.046  0.00  0.00    -0.150 OA
ENDROOT
BRANCH   1   4
ATOM      4  C   LIG    1       -1.947  -1.349   0.041  0.00  0.00    +0.109 A 
ATOM      5  C   LIG    1       -2.768  -0.886   1.034  0.00  0.00    +0.030 A 
ATOM      6  C   LIG    1       -3.538   0.243   0.831  0.00  0.00    +0.024 A 
ATOM      7  C   LIG    1       -3.474   0.897  -0.373  0.00  0.00    +0.025 A 
ATOM      8  C   LIG    1       -2.647   0.431  -1.373  0.00  0.00    +0.024 A 
ATOM      9  C   LIG    1       -1.877  -0.700  -1.169  0.00  0.00    +0.030 A 
BRANCH   7  10
ATOM     10  N   LIG    1       -4.267   2.071  -0.600  0.00  0.00    -0.358 N 
ATOM     11  H   LIG    1       -4.573   2.680   0.189  0.00  0.00    +0.142 HD
ATOM     12  H   LIG    1       -4.549   2.334  -1.555  0.00  0.00    +0.142 HD
ENDBRANCH   7  10
ENDBRANCH   1   4
BRANCH   1  13
ATOM     13  N   LIG    1        0.530  -2.305   0.967  0.00  0.00    -0.192 N 
ATOM     14  H   LIG    1        0.776  -2.679   1.901  0.00  0.00    +0.176 HD
BRANCH  13  15
ATOM     15  C   LIG    1        1.434  -1.418   0.295  0.00  0.00    +0.201 A 
ATOM     16  S   LIG    1        2.965  -0.817   0.791  0.00  0.00    -0.034 S 
ATOM     17  C   LIG    1        3.317   0.141  -0.581  0.00  0.00    +0.103 A 
ATOM     18  N   LIG    1        2.231  -0.074  -1.318  0.00  0.00    -0.145 NA
ATOM     19  N   LIG    1        1.319  -0.831  -0.890  0.00  0.00    -0.125 NA
BRANCH  17  20
ATOM     20  C   LIG    1        4.522   0.987  -0.866  0.00  0.00    +0.061 C 
ATOM     21  C   LIG    1        4.268   2.397  -0.334  0.00  0.00    +0.011 C 
ENDBRANCH  17  20
ENDBRANCH  13  15
ENDBRANCH   1  13
TORSDOF 5
