REMARK  Name = molecules/SWLMUYACZKCSHZ-MRXNPFEDSA-N.pdb
REMARK                            x       y       z     vdW  Elec       q    Type
REMARK                         _______ _______ _______ _____ _____    ______ ____
ROOT
ATOM      1  C   LIG    1        0.553   0.440   0.902  0.00  0.00    +0.071 C 
ENDROOT
BRANCH   1   2
ATOM      2  C   LIG    1        1.231   1.763   1.045  0.00  0.00    +0.137 C 
BRANCH   2   3
ATOM      3  N   LIG    1        1.040   2.630  -0.134  0.00  0.00    -0.336 N 
ATOM      4  C   LIG    1        0.067   3.519  -0.362  0.00  0.00    +0.106 A 
ATOM      5  C   LIG    1        0.238   4.138  -1.579  0.00  0.00    +0.130 A 
ATOM      6  N   LIG    1        1.373   3.584  -2.096  0.00  0.00    -0.244 NA
ATOM      7  C   LIG    1        1.837   2.680  -1.211  0.00  0.00    +0.199 A 
ENDBRANCH   2   3
ENDBRANCH   1   2
BRANCH   1   8
ATOM      8  C   LIG    1       -0.975   0.609   0.758  0.00  0.00    +0.021 C 
BRANCH   8   9
ATOM      9  C   LIG    1       -1.499  -0.835   0.720  0.00  0.00    +0.036 C 
BRANCH   9  10
ATOM     10  C   LIG    1       -2.980  -0.875   0.581  0.00  0.00    -0.047 A 
ATOM     11  C   LIG    1       -3.824  -0.880   1.671  0.00  0.00    +0.005 A 
ATOM     12  C   LIG    1       -5.211  -0.915   1.562  0.00  0.00    +0.020 A 
ATOM     13  C   LIG    1       -5.784  -0.946   0.324  0.00  0.00    +0.041 A 
ATOM     14 CL   LIG    1       -7.534  -0.989   0.127  0.00  0.00    -0.084 Cl
ATOM     15  C   LIG    1       -4.963  -0.942  -0.783  0.00  0.00    +0.020 A 
ATOM     16  C   LIG    1       -3.571  -0.907  -0.675  0.00  0.00    +0.005 A 
ENDBRANCH   9  10
ENDBRANCH   8   9
ENDBRANCH   1   8
BRANCH   1  17
ATOM     17  S   LIG    1        1.176  -0.453  -0.474  0.00  0.00    -0.117 S 
BRANCH  17  18
ATOM     18  C   LIG    1        2.747  -1.216  -0.359  0.00  0.00    +0.045 A 
ATOM     19  C   LIG    1        3.515  -1.376   0.763  0.00  0.00    +0.056 A 
ATOM     20 CL   LIG    1        2.999  -0.816   2.317  0.00  0.00    -0.082 Cl
ATOM     21  C   LIG    1        4.746  -2.051   0.738  0.00  0.00    +0.021 A 
ATOM     22  C   LIG    1        5.227  -2.584  -0.430  0.00  0.00    +0.003 A 
ATOM     23  C   LIG    1        4.480  -2.441  -1.565  0.00  0.00    +0.021 A 
ATOM     24  C   LIG    1        3.285  -1.782  -1.530  0.00  0.00    +0.056 A 
ATOM     25 CL   LIG    1        2.384  -1.642  -3.038  0.00  0.00    -0.082 Cl
ENDBRANCH  17  18
ENDBRANCH   1  17
TORSDOF 7
