REMARK  Name = molecules/SWRUZBWLEWHWRI-IBGZPJMESA-N.pdb
REMARK                            x       y       z     vdW  Elec       q    Type
REMARK                         _______ _______ _______ _____ _____    ______ ____
ROOT
ATOM      1  C   LIG    1       -1.073  -0.596  -0.126  0.00  0.00    +0.095 C 
ENDROOT
BRANCH   1   2
ATOM      2  C   LIG    1       -1.453   0.652  -0.893  0.00  0.00    -0.016 A 
ATOM      3  C   LIG    1       -1.779   1.827  -0.250  0.00  0.00    +0.006 A 
ATOM      4  C   LIG    1       -2.109   2.969  -0.948  0.00  0.00    +0.000 A 
ATOM      5  C   LIG    1       -2.119   2.954  -2.316  0.00  0.00    +0.000 A 
ATOM      6  C   LIG    1       -1.797   1.791  -2.988  0.00  0.00    +0.000 A 
ATOM      7  C   LIG    1       -1.470   0.664  -2.267  0.00  0.00    +0.006 A 
ENDBRANCH   1   2
BRANCH   1   8
ATOM      8  C   LIG    1       -2.227  -0.959   0.708  0.00  0.00    +0.025 C 
ATOM      9  C   LIG    1       -2.030  -2.106   1.664  0.00  0.00    +0.007 C 
ATOM     10  C   LIG    1       -3.480  -2.285   2.144  0.00  0.00    +0.000 C 
ATOM     11  C   LIG    1       -4.163  -2.424   0.777  0.00  0.00    +0.000 C 
ATOM     12  C   LIG    1       -3.442  -1.389  -0.077  0.00  0.00    +0.007 C 
ENDBRANCH   1   8
BRANCH   1  13
ATOM     13  O   LIG    1       -0.740  -1.564  -1.047  0.00  0.00    -0.384 OA
ATOM     14  H   LIG    1        0.169  -1.944  -0.914  0.00  0.00    +0.211 HD
ENDBRANCH   1  13
BRANCH   1  15
ATOM     15  C   LIG    1        0.162  -0.160   0.708  0.00  0.00    +0.055 C 
BRANCH  15  16
ATOM     16  C   LIG    1        1.158   0.427  -0.224  0.00  0.00    +0.087 C 
BRANCH  16  17
ATOM     17  N   LIG    1        2.337   0.898   0.385  0.00  0.00    -0.302 NA
ATOM     18  C   LIG    1        2.949   0.180   1.421  0.00  0.00    +0.084 C 
ATOM     19  C   LIG    1        4.255  -0.510   1.094  0.00  0.00    +0.015 C 
ATOM     20  C   LIG    1        4.764  -0.218  -0.294  0.00  0.00    +0.002 C 
ATOM     21  C   LIG    1        4.645   1.303  -0.445  0.00  0.00    +0.015 C 
ATOM     22  C   LIG    1        3.202   1.619  -0.519  0.00  0.00    +0.084 C 
ENDBRANCH  16  17
ENDBRANCH  15  16
ENDBRANCH   1  15
TORSDOF 6
