REMARK  Name = molecules/SXRSQZLOMIGNAQ-UHFFFAOYSA-N.pdb
REMARK                            x       y       z     vdW  Elec       q    Type
REMARK                         _______ _______ _______ _____ _____    ______ ____
ROOT
ATOM      1  C   LIG    1        0.138   0.452   0.703  0.00  0.00    +0.014 C 
ENDROOT
BRANCH   1   2
ATOM      2  C   LIG    1        0.838  -0.028  -0.552  0.00  0.00    +0.071 C 
BRANCH   2   4
ATOM      3  O   LIG    1        2.962  -0.499  -1.331  0.00  0.00    -0.301 OA
ATOM      4  C   LIG    1        2.303  -0.142  -0.382  0.00  0.00    +0.223 C 
ENDBRANCH   2   4
ENDBRANCH   1   2
BRANCH   1   5
ATOM      5  C   LIG    1       -1.339   0.536   0.336  0.00  0.00    +0.071 C 
BRANCH   5   6
ATOM      6  C   LIG    1       -1.872  -0.769  -0.101  0.00  0.00    +0.223 C 
ATOM      7  O   LIG    1       -2.599  -1.451   0.604  0.00  0.00    -0.301 OA
ENDBRANCH   5   6
ENDBRANCH   1   5
TORSDOF 4
