REMARK  Name = molecules/SYAKTDIEAPMBAL-QMMMGPOBSA-N.pdb
REMARK                            x       y       z     vdW  Elec       q    Type
REMARK                         _______ _______ _______ _____ _____    ______ ____
ROOT
ATOM      1  C   LIG    1        2.758   0.413  -0.251  0.00  0.00    +0.251 C 
ATOM      2  N   LIG    1        2.620   0.591   1.024  0.00  0.00    -0.186 NA
ATOM      3  C   LIG    1        1.276   0.228   1.428  0.00  0.00    +0.143 C 
ATOM      4  C   LIG    1        0.788  -0.556   0.249  0.00  0.00    +0.168 C 
ATOM      5  O   LIG    1        1.575  -0.064  -0.801  0.00  0.00    -0.331 OA
ENDROOT
BRANCH   4   6
ATOM      6  C   LIG    1       -0.673  -0.385   0.006  0.00  0.00    -0.017 A 
ATOM      7  C   LIG    1       -1.578  -1.399   0.250  0.00  0.00    +0.006 A 
ATOM      8  C   LIG    1       -2.933  -1.264   0.033  0.00  0.00    +0.000 A 
ATOM      9  C   LIG    1       -3.418  -0.065  -0.450  0.00  0.00    +0.000 A 
ATOM     10  C   LIG    1       -2.528   0.962  -0.700  0.00  0.00    +0.000 A 
ATOM     11  C   LIG    1       -1.165   0.800  -0.473  0.00  0.00    +0.006 A 
ENDBRANCH   4   6
BRANCH   1  12
ATOM     12  N   LIG    1        3.992   0.695  -0.915  0.00  0.00    -0.284 NA
ATOM     13  H   LIG    1        4.357   1.674  -0.896  0.00  0.00    +0.122 HD
ATOM     14  H   LIG    1        4.529  -0.048  -1.412  0.00  0.00    +0.122 HD
ENDBRANCH   1  12
TORSDOF 2
