REMARK  Name = molecules/SYHDSBBKRLVLFF-MHZLTWQESA-N.pdb
REMARK                            x       y       z     vdW  Elec       q    Type
REMARK                         _______ _______ _______ _____ _____    ______ ____
ROOT
ATOM      1  C   LIG    1       -2.202   0.918   0.200  0.00  0.00    +0.120 C 
ENDROOT
BRANCH   1   2
ATOM      2  C   LIG    1       -2.872  -0.057  -0.718  0.00  0.00    -0.011 A 
ATOM      3  C   LIG    1       -2.389  -1.330  -0.934  0.00  0.00    +0.007 A 
ATOM      4  C   LIG    1       -3.025  -2.201  -1.791  0.00  0.00    +0.004 A 
ATOM      5  C   LIG    1       -4.176  -1.846  -2.477  0.00  0.00    -0.050 A 
ATOM      6  C   LIG    1       -4.666  -0.575  -2.266  0.00  0.00    +0.004 A 
ATOM      7  C   LIG    1       -4.854  -2.804  -3.405  0.00  0.00    +0.044 C 
ATOM      8  C   LIG    1       -4.024   0.291  -1.408  0.00  0.00    +0.007 A 
ENDBRANCH   1   2
BRANCH   1   9
ATOM      9  C   LIG    1       -0.794   1.122  -0.140  0.00  0.00    -0.011 A 
ATOM     10  C   LIG    1        0.172   1.461   0.774  0.00  0.00    +0.010 A 
ATOM     11  C   LIG    1        1.500   1.653   0.455  0.00  0.00    +0.046 A 
ATOM     12  C   LIG    1        1.936   1.508  -0.835  0.00  0.00    +0.121 A 
ATOM     13  C   LIG    1        0.961   1.158  -1.802  0.00  0.00    +0.046 A 
ATOM     14  C   LIG    1       -0.348   0.975  -1.460  0.00  0.00    +0.010 A 
BRANCH  12  15
ATOM     15  O   LIG    1        3.227   1.676  -1.239  0.00  0.00    -0.491 OA
BRANCH  15  16
ATOM     16  C   LIG    1        4.337   1.989  -0.522  0.00  0.00    +0.244 C 
BRANCH  16  17
ATOM     17  C   LIG    1        4.807   1.038   0.522  0.00  0.00    +0.125 C 
BRANCH  17  18
ATOM     18  N   LIG    1        5.138  -0.265   0.019  0.00  0.00    -0.300 NA
BRANCH  18  19
ATOM     19  C   LIG    1        5.590  -1.131   1.058  0.00  0.00    +0.081 C 
ATOM     20  C   LIG    1        6.925  -0.695   1.614  0.00  0.00    +0.020 C 
ENDBRANCH  18  19
BRANCH  18  21
ATOM     21  C   LIG    1        5.974  -0.306  -1.126  0.00  0.00    +0.081 C 
ATOM     22  C   LIG    1        6.210  -1.780  -1.459  0.00  0.00    +0.020 C 
ENDBRANCH  18  21
ENDBRANCH  17  18
ENDBRANCH  16  17
ENDBRANCH  15  16
ENDBRANCH  12  15
ENDBRANCH   1   9
BRANCH   1  23
ATOM     23  O   LIG    1       -2.839   2.166  -0.003  0.00  0.00    -0.379 OA
ATOM     24  H   LIG    1       -2.283   2.917   0.279  0.00  0.00    +0.211 HD
ENDBRANCH   1  23
BRANCH   1  25
ATOM     25  C   LIG    1       -2.457   0.584   1.652  0.00  0.00    +0.079 C 
BRANCH  25  26
ATOM     26  C   LIG    1       -3.942   0.499   1.885  0.00  0.00    -0.044 A 
ATOM     27  C   LIG    1       -4.703   1.597   2.236  0.00  0.00    +0.005 A 
ATOM     28  C   LIG    1       -6.082   1.466   2.439  0.00  0.00    +0.020 A 
ATOM     29  C   LIG    1       -6.712   0.246   2.295  0.00  0.00    +0.041 A 
ATOM     30 CL   LIG    1       -8.443   0.074   2.548  0.00  0.00    -0.084 Cl
ATOM     31  C   LIG    1       -5.935  -0.838   1.944  0.00  0.00    +0.020 A 
ATOM     32  C   LIG    1       -4.559  -0.722   1.739  0.00  0.00    +0.005 A 
ENDBRANCH  25  26
ENDBRANCH   1  25
TORSDOF 11
