REMARK  Name = molecules/SYLKGLMBLAAGSC-QLVMHMETSA-N.pdb
REMARK                            x       y       z     vdW  Elec       q    Type
REMARK                         _______ _______ _______ _____ _____    ______ ____
ROOT
ATOM      1  CA  LIG    1       -2.148  -0.366  -1.980  0.00  0.00    +0.128 C 
ATOM      2  C   LIG    1       -2.714  -0.873  -0.900  0.00  0.00    -0.014 C 
ATOM      3  C   LIG    1       -2.013  -1.429   0.308  0.00  0.00    +0.105 C 
ATOM      4  S   LIG    1       -0.243  -1.589   0.016  0.00  0.00    -0.131 S 
ATOM      5  C   LIG    1       -0.062  -1.655  -1.762  0.00  0.00    +0.169 C 
ATOM      6  CA  LIG    1        1.189  -1.117  -2.405  0.00  0.00    +0.191 C 
ATOM      7  C   LIG    1        0.448   0.105  -2.701  0.00  0.00    +0.244 C 
ATOM      8  O   LIG    1        0.776   1.220  -3.201  0.00  0.00    -0.273 OA
ATOM      9  N   LIG    1       -0.737  -0.431  -2.222  0.00  0.00    -0.249 N 
ENDROOT
BRANCH   6  10
ATOM     10  N   LIG    1        2.350  -1.104  -1.705  0.00  0.00    -0.300 N 
ATOM     11  C   LIG    1        3.530  -1.094  -0.994  0.00  0.00    +0.245 C 
ATOM     12  O   LIG    1        4.195  -2.078  -0.649  0.00  0.00    -0.273 OA
ATOM     13  H   LIG    1        2.399  -2.464  -1.747  0.00  0.00    +0.150 HD
BRANCH  11  14
ATOM     14  C   LIG    1        4.156   0.232  -0.552  0.00  0.00    +0.275 C 
BRANCH  14  15
ATOM     15  C   LIG    1        5.234   0.060   0.420  0.00  0.00    -0.012 A 
ATOM     16  C   LIG    1        5.215   0.775   1.602  0.00  0.00    +0.006 A 
ATOM     17  C   LIG    1        6.218   0.682   2.544  0.00  0.00    +0.000 A 
ATOM     18  C   LIG    1        7.299  -0.139   2.349  0.00  0.00    +0.000 A 
ATOM     19  C   LIG    1        7.336  -0.874   1.154  0.00  0.00    +0.000 A 
ATOM     20  C   LIG    1        6.322  -0.757   0.239  0.00  0.00    +0.006 A 
ENDBRANCH  14  15
BRANCH  14  21
ATOM     21  S   LIG    1        4.927   0.967  -2.005  0.00  0.00    +0.095 S 
ATOM     22  O   LIG    1        5.236   2.422  -1.675  0.00  0.00    -0.146 OA
ATOM     23  O   LIG    1        6.223   0.329  -2.339  0.00  0.00    -0.146 OA
BRANCH  21  24
ATOM     24  O   LIG    1        3.825   1.012  -3.244  0.00  0.00    -0.253 OA
ATOM     25  H   LIG    1        4.183   1.589  -3.992  0.00  0.00    +0.245 HD
ENDBRANCH  21  24
ENDBRANCH  14  21
ENDBRANCH  11  14
ENDBRANCH   6  10
BRANCH   1  26
ATOM     26  C   LIG    1       -2.931   0.237  -3.077  0.00  0.00    +0.401 C 
ATOM     27  OXT LIG    1       -4.151   0.417  -3.123  0.00  0.00    -0.239 OA
ATOM     28  O   LIG    1       -2.226   0.675  -4.225  0.00  0.00    -0.239 OA
ENDBRANCH   1  26
BRANCH   2  29
ATOM     29  C   LIG    1       -4.210  -0.886  -0.719  0.00  0.00    +0.143 C 
BRANCH  29  30
ATOM     30  N   LIG    1       -4.671  -0.196   0.448  0.00  0.00    -0.309 N 
ATOM     31  C   LIG    1       -4.807  -0.903   1.593  0.00  0.00    +0.072 C 
ATOM     32  C   LIG    1       -5.272  -0.379   2.776  0.00  0.00    +0.010 C 
ATOM     33  C   LIG    1       -5.625   0.957   2.805  0.00  0.00    +0.106 C 
ATOM     34  C   LIG    1       -5.487   1.687   1.647  0.00  0.00    +0.010 C 
ATOM     35  C   LIG    1       -5.008   1.096   0.465  0.00  0.00    +0.072 C 
BRANCH  33  36
ATOM     36  C   LIG    1       -6.153   1.553   4.026  0.00  0.00    +0.226 C 
ATOM     37  O   LIG    1       -6.493   0.778   4.986  0.00  0.00    -0.275 OA
ATOM     38  N   LIG    1       -6.313   2.949   4.225  0.00  0.00    -0.328 N 
ATOM     39  H   LIG    1       -6.350   3.314   5.193  0.00  0.00    +0.145 HD
ATOM     40  H   LIG    1       -6.401   3.610   3.431  0.00  0.00    +0.145 HD
ENDBRANCH  33  36
ENDBRANCH  29  30
ENDBRANCH   2  29
TORSDOF 9
