REMARK  Name = molecules/SYOKIDBDQMKNDQ-NHMCJKAESA-N.pdb
REMARK                            x       y       z     vdW  Elec       q    Type
REMARK                         _______ _______ _______ _____ _____    ______ ____
ROOT
ATOM      1  C   LIG    1       -1.524  -0.854  -0.828  0.00  0.00    +0.026 C 
ATOM      2  C   LIG    1       -1.313  -0.324   0.584  0.00  0.00    +0.023 C 
ATOM      3  C   LIG    1       -2.217  -1.106   1.500  0.00  0.00    +0.026 C 
ATOM      4  C   LIG    1       -3.659  -0.932   1.118  0.00  0.00    -0.006 C 
ATOM      5  C   LIG    1       -3.991   0.530   1.123  0.00  0.00    +0.038 C 
ATOM      6  C   LIG    1       -3.115   1.281   0.143  0.00  0.00    +0.068 C 
ATOM      7  C   LIG    1       -3.252   0.776  -1.255  0.00  0.00    +0.038 C 
ATOM      8  C   LIG    1       -3.878  -1.468  -0.284  0.00  0.00    +0.007 C 
ATOM      9  C   LIG    1       -1.682   1.144   0.605  0.00  0.00    +0.057 C 
ATOM     10  C   LIG    1       -2.980  -0.723  -1.227  0.00  0.00    -0.006 C 
ENDROOT
BRANCH   6  11
ATOM     11  O   LIG    1       -3.541   2.606   0.166  0.00  0.00    -0.388 OA
ATOM     12  H   LIG    1       -4.126   2.749  -0.609  0.00  0.00    +0.210 HD
ENDBRANCH   6  11
BRANCH   2  13
ATOM     13  N   LIG    1        0.035  -0.590   0.923  0.00  0.00    -0.303 NA
ATOM     14  H   LIG    1        0.253  -1.148   1.730  0.00  0.00    +0.123 HD
BRANCH  13  15
ATOM     15  C   LIG    1        1.042   0.059   0.192  0.00  0.00    +0.178 C 
BRANCH  15  16
ATOM     16  C   LIG    1        2.378  -0.485   0.558  0.00  0.00    +0.230 C 
ATOM     17  O   LIG    1        2.388  -1.420   1.417  0.00  0.00    -0.274 OA
ATOM     18  N   LIG    1        3.572  -0.002  -0.011  0.00  0.00    -0.285 N 
ATOM     19  C   LIG    1        4.877  -0.538   0.205  0.00  0.00    +0.179 C 
ATOM     20  C   LIG    1        5.580  -0.320  -1.147  0.00  0.00    +0.039 C 
ATOM     21  C   LIG    1        4.619   0.514  -1.982  0.00  0.00    +0.022 C 
ATOM     22  C   LIG    1        3.704   1.084  -0.928  0.00  0.00    +0.109 C 
BRANCH  19  23
ATOM     23  C   LIG    1        5.571   0.093   1.301  0.00  0.00    +0.085 C 
ATOM     24  N   LIG    1        6.120   0.580   2.192  0.00  0.00    -0.195 NA
ENDBRANCH  19  23
ENDBRANCH  15  16
ENDBRANCH  13  15
ENDBRANCH   2  13
TORSDOF 5
