REMARK  Name = molecules/SYWHXTATXSMDSB-GSLJADNHSA-N.pdb
REMARK                            x       y       z     vdW  Elec       q    Type
REMARK                         _______ _______ _______ _____ _____    ______ ____
ROOT
ATOM      1  F   LIG    1       -1.334  -1.150   0.713  0.00  0.00    -0.238 F 
ATOM      2  C   LIG    1       -1.719  -0.166  -0.214  0.00  0.00    +0.149 C 
ATOM      3  C   LIG    1       -1.322   1.150   0.441  0.00  0.00    +0.034 C 
ATOM      4  C   LIG    1       -2.202   1.454   1.598  0.00  0.00    +0.011 C 
ATOM      5  C   LIG    1       -3.068   0.345   2.089  0.00  0.00    +0.032 C 
ATOM      6  C   LIG    1       -3.728  -0.432   1.018  0.00  0.00    -0.057 C 
ATOM      7  C   LIG    1       -4.741  -1.207   1.319  0.00  0.00    +0.046 C 
ATOM      8  C   LIG    1       -5.384  -1.977   0.263  0.00  0.00    +0.156 C 
ATOM      9  O   LIG    1       -6.340  -2.747   0.589  0.00  0.00    -0.293 OA
ATOM     10  C   LIG    1       -4.954  -1.884  -1.148  0.00  0.00    +0.080 C 
ATOM     11  C   LIG    1       -3.473  -1.566  -1.168  0.00  0.00    +0.022 C 
ATOM     12  C   LIG    1        0.070   0.935   0.886  0.00  0.00    +0.004 C 
ATOM     13  C   LIG    1        0.772   2.012   1.599  0.00  0.00    +0.008 C 
ATOM     14  C   LIG    1        2.224   1.506   1.565  0.00  0.00    +0.043 C 
ATOM     15  C   LIG    1        2.247   0.378   0.536  0.00  0.00    +0.133 C 
ATOM     16  C   LIG    1        1.024   0.681  -0.284  0.00  0.00    +0.009 C 
ATOM     17  C   LIG    1        1.283   1.955  -1.052  0.00  0.00    +0.015 C 
ATOM     18  C   LIG    1        0.545  -0.435  -1.131  0.00  0.00    +0.044 C 
ATOM     19  C   LIG    1       -3.196  -0.301  -0.368  0.00  0.00    +0.026 C 
ATOM     20  C   LIG    1       -3.882   0.858  -1.010  0.00  0.00    +0.019 C 
ATOM     21  C   LIG    1       -0.921  -0.424  -1.446  0.00  0.00    +0.153 C 
ENDROOT
BRANCH  15  22
ATOM     22  O   LIG    1        2.057  -0.811   1.240  0.00  0.00    -0.380 OA
ATOM     23  H   LIG    1        2.315  -1.565   0.687  0.00  0.00    +0.211 HD
ENDBRANCH  15  22
BRANCH  15  24
ATOM     24  C   LIG    1        3.511   0.432  -0.182  0.00  0.00    +0.202 C 
ATOM     25  O   LIG    1        3.820   1.399  -0.836  0.00  0.00    -0.291 OA
BRANCH  24  26
ATOM     26  C   LIG    1        4.428  -0.728  -0.099  0.00  0.00    +0.309 C 
BRANCH  26  27
ATOM     27  O   LIG    1        5.612  -0.525  -0.846  0.00  0.00    -0.457 OA
BRANCH  27  28
ATOM     28  C   LIG    1        6.587  -1.506  -0.885  0.00  0.00    +0.304 C 
ATOM     29  O   LIG    1        6.359  -2.565  -0.229  0.00  0.00    -0.251 OA
ATOM     30  C   LIG    1        7.862  -1.342  -1.661  0.00  0.00    +0.136 C 
ENDBRANCH  27  28
ENDBRANCH  26  27
ENDBRANCH  24  26
ENDBRANCH  15  24
BRANCH  21  31
ATOM     31  O   LIG    1       -1.246   0.359  -2.531  0.00  0.00    -0.389 OA
ATOM     32  H   LIG    1       -1.489   1.278  -2.345  0.00  0.00    +0.210 HD
ENDBRANCH  21  31
TORSDOF 6
