REMARK  Name = molecules/SZNQDPUZKFSCNG-UHFFFAOYSA-N.pdb
REMARK                            x       y       z     vdW  Elec       q    Type
REMARK                         _______ _______ _______ _____ _____    ______ ____
ROOT
ATOM      1  C   LIG    1        3.054  -1.894   0.731  0.00  0.00    +0.045 C 
ATOM      2  C   LIG    1        2.799  -0.610   0.041  0.00  0.00    -0.033 A 
ATOM      3  C   LIG    1        1.532  -0.114  -0.159  0.00  0.00    +0.024 A 
ATOM      4  C   LIG    1        0.417  -0.794   0.279  0.00  0.00    +0.064 A 
ATOM      5  C   LIG    1       -0.861  -0.338   0.102  0.00  0.00    +0.204 A 
ATOM      6  C   LIG    1       -1.027   0.867  -0.550  0.00  0.00    +0.207 A 
ATOM      7  C   LIG    1        0.050   1.594  -1.011  0.00  0.00    +0.099 A 
ATOM      8  C   LIG    1        1.320   1.104  -0.815  0.00  0.00    +0.143 A 
ATOM      9  O   LIG    1        2.378   1.750  -1.230  0.00  0.00    -0.422 OA
ATOM     10  C   LIG    1        3.609   1.328  -1.069  0.00  0.00    +0.337 A 
ATOM     11  O   LIG    1        4.610   1.975  -1.482  0.00  0.00    -0.245 OA
ATOM     12  C   LIG    1        3.872   0.117  -0.420  0.00  0.00    +0.096 A 
ENDROOT
BRANCH   5  13
ATOM     13  O   LIG    1       -1.966  -1.024   0.542  0.00  0.00    -0.321 OA
BRANCH  13  14
ATOM     14  S   LIG    1       -2.815  -2.173  -0.358  0.00  0.00    +0.251 S 
ATOM     15  O   LIG    1       -1.939  -3.208  -0.962  0.00  0.00    -0.108 OA
ATOM     16  O   LIG    1       -3.596  -1.482  -1.428  0.00  0.00    -0.108 OA
BRANCH  14  17
ATOM     17  O   LIG    1       -3.862  -2.971   0.715  0.00  0.00    -0.222 OA
ATOM     18  H   LIG    1       -4.153  -3.838   0.296  0.00  0.00    +0.248 HD
ENDBRANCH  14  17
ENDBRANCH  13  14
ENDBRANCH   5  13
BRANCH   6  19
ATOM     19  O   LIG    1       -2.305   1.338  -0.735  0.00  0.00    -0.321 OA
BRANCH  19  20
ATOM     20  S   LIG    1       -3.113   2.337   0.370  0.00  0.00    +0.251 S 
ATOM     21  O   LIG    1       -2.339   2.501   1.647  0.00  0.00    -0.108 OA
ATOM     22  O   LIG    1       -4.433   1.710   0.717  0.00  0.00    -0.108 OA
BRANCH  20  23
ATOM     23  O   LIG    1       -3.421   3.823  -0.334  0.00  0.00    -0.222 OA
ATOM     24  H   LIG    1       -2.664   4.093  -0.927  0.00  0.00    +0.248 HD
ENDBRANCH  20  23
ENDBRANCH  19  20
ENDBRANCH   6  19
TORSDOF 6
