REMARK  Name = molecules/TVYLLZQTGLZFBW-ZBFHGGJFSA-N.pdb
REMARK                            x       y       z     vdW  Elec       q    Type
REMARK                         _______ _______ _______ _____ _____    ______ ____
ROOT
ATOM      1  C   LIG    1       -0.184   1.180   0.182  0.00  0.00    +0.095 C 
ATOM      2  C   LIG    1       -0.212   2.704  -0.049  0.00  0.00    +0.040 C 
ATOM      3  C   LIG    1       -1.532   3.305  -0.039  0.00  0.00    +0.003 C 
ATOM      4  C   LIG    1       -2.663   2.523  -0.637  0.00  0.00    +0.001 C 
ATOM      5  C   LIG    1       -2.559   1.081  -0.232  0.00  0.00    +0.008 C 
ATOM      6  C   LIG    1       -1.173   0.565  -0.698  0.00  0.00    +0.039 C 
ENDROOT
BRANCH   1   7
ATOM      7  C   LIG    1        1.242   0.766   0.082  0.00  0.00    -0.012 A 
ATOM      8  C   LIG    1        1.642  -0.524   0.056  0.00  0.00    +0.052 A 
ATOM      9  C   LIG    1        3.023  -0.926  -0.043  0.00  0.00    +0.120 A 
ATOM     10  C   LIG    1        3.974   0.088  -0.103  0.00  0.00    +0.045 A 
ATOM     11  C   LIG    1        3.584   1.415  -0.076  0.00  0.00    +0.004 A 
ATOM     12  C   LIG    1        2.232   1.679   0.011  0.00  0.00    +0.007 A 
BRANCH   9  13
ATOM     13  O   LIG    1        3.323  -2.174  -0.076  0.00  0.00    -0.495 OA
ATOM     14  C   LIG    1        3.939  -3.309  -0.131  0.00  0.00    +0.277 C 
ENDBRANCH   9  13
ENDBRANCH   1   7
BRANCH   1  15
ATOM     15  O   LIG    1       -0.589   1.035   1.532  0.00  0.00    -0.384 OA
ATOM     16  H   LIG    1       -0.059   1.723   2.004  0.00  0.00    +0.211 HD
ENDBRANCH   1  15
BRANCH   6  17
ATOM     17  C   LIG    1       -1.278  -0.929  -0.823  0.00  0.00    +0.090 C 
BRANCH  17  18
ATOM     18  N   LIG    1       -1.602  -1.698   0.295  0.00  0.00    -0.308 NA
ATOM     19  C   LIG    1       -2.910  -1.682   0.836  0.00  0.00    +0.104 C 
ATOM     20  C   LIG    1       -1.211  -3.081   0.162  0.00  0.00    +0.104 C 
ENDBRANCH  17  18
ENDBRANCH   6  17
TORSDOF 5
