REMARK  Name = molecules/TVZGACDUOSZQKY-LBPRGKRZSA-N.pdb
REMARK                            x       y       z     vdW  Elec       q    Type
REMARK                         _______ _______ _______ _____ _____    ______ ____
ROOT
ATOM      1  C   UNK A  0        0.692  -1.062  -0.241  0.00  0.00    +0.027 A 
ATOM      2  C   UNK A  0        0.188  -2.267   0.252  0.00  0.00    +0.023 A 
ATOM      3  C   UNK A  0       -1.174  -2.461   0.343  0.00  0.00    +0.015 A 
ATOM      4  C   UNK A  0       -2.064  -1.487  -0.044  0.00  0.00    +0.037 A 
ATOM      5  C   UNK A  0       -1.595  -0.298  -0.531  0.00  0.00    +0.015 A 
ATOM      6  C   UNK A  0       -0.219  -0.102  -0.622  0.00  0.00    +0.023 A 
ENDROOT
BRANCH   4   7
ATOM      7  C   UNK A  0       -3.479  -1.733   0.068  0.00  0.00    +0.245 C 
ATOM      8  O   UNK A  0       -3.889  -2.837   0.521  0.00  0.00    -0.270 OA
ATOM      9  N   GLU A  1       -4.419  -0.747  -0.325  0.00  0.00    -0.298 N 
ATOM     10  H   GLU A  1       -4.175   0.189  -0.708  0.00  0.00    +0.150 HD
BRANCH   9  11
ATOM     11  CA  GLU A  1       -5.854  -1.020  -0.202  0.00  0.00    +0.182 C 
BRANCH  11  12
ATOM     12  C   GLU A  1       -6.502  -1.004  -1.518  0.00  0.00    +0.325 C 
ATOM     13  O   GLU A  1       -5.917  -0.788  -2.609  0.00  0.00    -0.249 OA
BRANCH  12  14
ATOM     14  OXT GLU A  1       -7.869  -1.246  -1.575  0.00  0.00    -0.479 OA
ATOM     15  HXT GLU A  1       -8.164  -2.231  -1.535  0.00  0.00    +0.295 HD
ENDBRANCH  12  14
ENDBRANCH  11  12
BRANCH  11  16
ATOM     16  CB  GLU A  1       -6.485  -0.068   0.783  0.00  0.00    +0.045 C 
BRANCH  16  17
ATOM     17  CG  GLU A  1       -6.345   1.365   0.394  0.00  0.00    +0.123 C 
BRANCH  17  18
ATOM     18  CD  GLU A  1       -6.999   2.204   1.430  0.00  0.00    +0.305 C 
ATOM     19  OE1 GLU A  1       -7.013   3.476   1.321  0.00  0.00    -0.251 OA
BRANCH  18  20
ATOM     20  OE2 GLU A  1       -7.605   1.656   2.525  0.00  0.00    -0.481 OA
ATOM     21  HE2 GLU A  1       -7.978   2.187   3.276  0.00  0.00    +0.295 HD
ENDBRANCH  18  20
ENDBRANCH  17  18
ENDBRANCH  16  17
ENDBRANCH  11  16
ENDBRANCH   9  11
ENDBRANCH   4   7
BRANCH   1  22
ATOM     22  N   UNK A  0        2.084  -0.884  -0.326  0.00  0.00    -0.338 N 
ATOM     23  H   UNK A  0        2.742  -1.630  -0.029  0.00  0.00    +0.146 HD
BRANCH  22  24
ATOM     24  C   UNK A  0        2.613   0.356  -0.833  0.00  0.00    +0.158 C 
BRANCH  24  32
ATOM     25  C   UNK A  0        6.951   1.258   1.210  0.00  0.00    +0.149 A 
ATOM     26  N   UNK A  0        8.271   1.223   1.069  0.00  0.00    -0.198 NA
ATOM     27  C   UNK A  0        8.898   0.781  -0.045  0.00  0.00    +0.216 A 
ATOM     28  N   UNK A  0        8.123   0.354  -1.065  0.00  0.00    -0.193 NA
ATOM     29  C   UNK A  0        6.778   0.353  -1.013  0.00  0.00    +0.185 A 
ATOM     30  N   UNK A  0        6.054  -0.084  -2.059  0.00  0.00    -0.232 NA
ATOM     31  C   UNK A  0        4.724  -0.080  -1.993  0.00  0.00    +0.138 A 
ATOM     32  C   UNK A  0        4.092   0.372  -0.853  0.00  0.00    +0.077 A 
ATOM     33  N   UNK A  0        4.833   0.805   0.183  0.00  0.00    -0.242 NA
ATOM     34  C   UNK A  0        6.176   0.817   0.155  0.00  0.00    +0.148 A 
BRANCH  25  35
ATOM     35  N   UNK A  0        6.273   1.718   2.373  0.00  0.00    -0.341 N 
ATOM     36  H   UNK A  0        6.405   1.200   3.277  0.00  0.00    +0.144 HD
ATOM     37  H   UNK A  0        5.640   2.570   2.352  0.00  0.00    +0.144 HD
ENDBRANCH  25  35
BRANCH  27  38
ATOM     38  N   UNK A  0       10.312   0.764  -0.146  0.00  0.00    -0.327 N 
ATOM     39  H   UNK A  0       10.859   0.094   0.397  0.00  0.00    +0.145 HD
ATOM     40  H   UNK A  0       10.762   1.450  -0.784  0.00  0.00    +0.145 HD
ENDBRANCH  27  38
ENDBRANCH  24  32
ENDBRANCH  22  24
ENDBRANCH   1  22
TORSDOF 13
