REMARK  Name = molecules/TWIIVLKQFJBFPW-UHFFFAOYSA-N.pdb
REMARK                            x       y       z     vdW  Elec       q    Type
REMARK                         _______ _______ _______ _____ _____    ______ ____
ROOT
ATOM      1  O   LIG    1       -1.149   0.695   0.198  0.00  0.00    -0.422 OA
ENDROOT
BRANCH   1   2
ATOM      2  C   LIG    1        0.246   0.562   0.091  0.00  0.00    +0.132 A 
ATOM      3  C   LIG    1        0.919   0.176   1.228  0.00  0.00    +0.048 A 
ATOM      4  C   LIG    1        2.284   0.019   1.224  0.00  0.00    +0.027 A 
ATOM      5  C   LIG    1        2.977   0.257   0.050  0.00  0.00    +0.034 A 
ATOM      6  C   LIG    1        2.303   0.640  -1.076  0.00  0.00    +0.027 A 
ATOM      7  C   LIG    1        0.915   0.800  -1.075  0.00  0.00    +0.048 A 
BRANCH   5   8
ATOM      8  N   LIG    1        4.375   0.094   0.053  0.00  0.00    -0.286 N 
ATOM      9  H   LIG    1        4.806  -0.212   0.997  0.00  0.00    +0.155 HD
ATOM     10  C   LIG    1        5.259   0.280  -1.010  0.00  0.00    +0.214 C 
ATOM     11  C   LIG    1        6.736   0.050  -0.791  0.00  0.00    +0.109 C 
ATOM     12  O   LIG    1        4.957   0.629  -2.166  0.00  0.00    -0.276 OA
ENDBRANCH   5   8
ENDBRANCH   1   2
BRANCH   1  13
ATOM     13  C   LIG    1       -1.990  -0.382  -0.058  0.00  0.00    +0.348 C 
ATOM     14  O   LIG    1       -1.447  -1.444  -0.379  0.00  0.00    -0.244 OA
BRANCH  13  15
ATOM     15  C   LIG    1       -3.438  -0.275   0.044  0.00  0.00    +0.101 A 
ATOM     16  C   LIG    1       -4.010   0.956   0.414  0.00  0.00    +0.018 A 
ATOM     17  C   LIG    1       -5.362   1.139   0.532  0.00  0.00    +0.001 A 
ATOM     18  C   LIG    1       -6.247   0.110   0.292  0.00  0.00    +0.004 A 
ATOM     19  C   LIG    1       -5.717  -1.098  -0.069  0.00  0.00    +0.046 A 
ATOM     20  C   LIG    1       -4.325  -1.292  -0.193  0.00  0.00    +0.131 A 
BRANCH  20  21
ATOM     21  O   LIG    1       -3.895  -2.538  -0.559  0.00  0.00    -0.506 OA
ATOM     22  H   LIG    1       -3.013  -2.921  -0.709  0.00  0.00    +0.292 HD
ENDBRANCH  20  21
ENDBRANCH  13  15
ENDBRANCH   1  13
TORSDOF 5
