REMARK  Name = molecules/TXCGAZHTZHNUAI-UHFFFAOYSA-N.pdb
REMARK                            x       y       z     vdW  Elec       q    Type
REMARK                         _______ _______ _______ _____ _____    ______ ____
ROOT
ATOM      1  O   LIG    1       -0.556   0.102   0.885  0.00  0.00    -0.475 OA
ENDROOT
BRANCH   1   2
ATOM      2  C   LIG    1        0.781   0.248   0.521  0.00  0.00    +0.122 A 
ATOM      3  C   LIG    1        1.736   0.652   1.431  0.00  0.00    +0.047 A 
ATOM      4  C   LIG    1        3.061   0.797   1.073  0.00  0.00    +0.023 A 
ATOM      5  C   LIG    1        3.501   0.546  -0.209  0.00  0.00    +0.041 A 
ATOM      6 CL   LIG    1        5.183   0.726  -0.678  0.00  0.00    -0.084 Cl
ATOM      7  C   LIG    1        2.557   0.141  -1.130  0.00  0.00    +0.023 A 
ATOM      8  C   LIG    1        1.236   0.001  -0.757  0.00  0.00    +0.047 A 
ENDBRANCH   1   2
BRANCH   1   9
ATOM      9  C   LIG    1       -1.577  -0.300   0.038  0.00  0.00    +0.200 C 
ATOM     10  C   LIG    1       -1.397  -1.701  -0.502  0.00  0.00    +0.067 C 
ATOM     11  C   LIG    1       -1.768   0.715  -1.079  0.00  0.00    +0.067 C 
BRANCH   9  12
ATOM     12  C   LIG    1       -2.845  -0.313   0.854  0.00  0.00    +0.348 C 
ATOM     13  O   LIG    1       -3.898  -0.647   0.292  0.00  0.00    -0.247 OA
BRANCH  12  14
ATOM     14  O   LIG    1       -2.861   0.035   2.197  0.00  0.00    -0.478 OA
ATOM     15  H   LIG    1       -2.176   0.724   2.517  0.00  0.00    +0.295 HD
ENDBRANCH  12  14
ENDBRANCH   9  12
ENDBRANCH   1   9
TORSDOF 4
