REMARK  Name = molecules/TYNLGDBUJLVSMA-UHFFFAOYSA-N.pdb
REMARK                            x       y       z     vdW  Elec       q    Type
REMARK                         _______ _______ _______ _____ _____    ______ ____
ROOT
ATOM      1  C   LIG    1       -1.986  -0.304   0.585  0.00  0.00    +0.144 A 
ATOM      2  C   LIG    1       -3.248   0.239   0.462  0.00  0.00    +0.062 A 
ATOM      3  C   LIG    1       -3.449   1.557   0.094  0.00  0.00    +0.063 A 
ATOM      4  C   LIG    1       -2.368   2.359  -0.161  0.00  0.00    +0.027 A 
ATOM      5  C   LIG    1       -1.098   1.816  -0.039  0.00  0.00    +0.037 A 
ATOM      6  C   LIG    1        0.044   2.707  -0.320  0.00  0.00    +0.195 C 
ATOM      7  C   LIG    1        1.401   2.183  -0.206  0.00  0.00    +0.037 A 
ATOM      8  C   LIG    1        1.624   0.872   0.161  0.00  0.00    +0.075 A 
ATOM      9  C   LIG    1        0.479  -0.003   0.437  0.00  0.00    +0.202 C 
ATOM     10  O   LIG    1        0.669  -1.185   0.768  0.00  0.00    -0.286 OA
ATOM     11  C   LIG    1        2.898   0.370   0.271  0.00  0.00    +0.143 A 
ATOM     12  C   LIG    1        3.996   1.166   0.017  0.00  0.00    +0.047 A 
ATOM     13  C   LIG    1        3.792   2.480  -0.350  0.00  0.00    +0.004 A 
ATOM     14  C   LIG    1        2.517   2.977  -0.459  0.00  0.00    +0.012 A 
ATOM     15  O   LIG    1       -0.126   3.905  -0.656  0.00  0.00    -0.287 OA
ATOM     16  C   LIG    1       -0.899   0.501   0.329  0.00  0.00    +0.076 A 
ENDROOT
BRANCH   3  17
ATOM     17  C   LIG    1       -4.789   2.110  -0.030  0.00  0.00    +0.337 C 
ATOM     18  O   LIG    1       -5.764   1.354   0.209  0.00  0.00    -0.245 OA
BRANCH  17  19
ATOM     19  O   LIG    1       -4.971   3.433  -0.400  0.00  0.00    -0.477 OA
ATOM     20  H   LIG    1       -4.730   4.156   0.294  0.00  0.00    +0.295 HD
ENDBRANCH  17  19
ENDBRANCH   3  17
BRANCH   1  21
ATOM     21  O   LIG    1       -1.824  -1.626   0.956  0.00  0.00    -0.425 OA
BRANCH  21  22
ATOM     22  C   LIG    1       -1.762  -2.671   0.053  0.00  0.00    +0.309 C 
ATOM     23  C   LIG    1       -1.587  -4.087   0.467  0.00  0.00    +0.136 C 
ATOM     24  O   LIG    1       -1.855  -2.439  -1.179  0.00  0.00    -0.251 OA
ENDBRANCH  21  22
ENDBRANCH   1  21
BRANCH  11  25
ATOM     25  O   LIG    1        3.058  -0.977   0.649  0.00  0.00    -0.425 OA
BRANCH  25  26
ATOM     26  C   LIG    1        3.114  -1.998  -0.275  0.00  0.00    +0.309 C 
ATOM     27  C   LIG    1        3.279  -3.423   0.059  0.00  0.00    +0.136 C 
ATOM     28  O   LIG    1        3.014  -1.685  -1.492  0.00  0.00    -0.251 OA
ENDBRANCH  25  26
ENDBRANCH  11  25
TORSDOF 6
