REMARK  Name = molecules/TZFNLOMSOLWIDK-JTQLQIEISA-N.pdb
REMARK                            x       y       z     vdW  Elec       q    Type
REMARK                         _______ _______ _______ _____ _____    ______ ____
ROOT
ATOM      1  C   LIG    1       -1.427   0.589  -0.690  0.00  0.00    +0.131 C 
ATOM      2  C   LIG    1       -1.196   1.597   0.390  0.00  0.00    +0.041 C 
ENDROOT
BRANCH   1   3
ATOM      3  N   LIG    1       -2.019  -0.595  -0.066  0.00  0.00    -0.243 NA
ATOM      4  H   LIG    1       -2.245  -1.326  -0.777  0.00  0.00    +0.142 HD
BRANCH   3   5
ATOM      5  N   LIG    1       -3.176  -0.248   0.622  0.00  0.00    -0.269 NA
ATOM      6  H   LIG    1       -3.054  -0.284   1.647  0.00  0.00    +0.137 HD
ATOM      7  H   LIG    1       -3.993  -0.860   0.390  0.00  0.00    +0.137 HD
ENDBRANCH   3   5
ENDBRANCH   1   3
BRANCH   1   8
ATOM      8  C   LIG    1       -2.421   1.098  -1.663  0.00  0.00    +0.326 C 
ATOM      9  O   LIG    1       -3.540   0.573  -1.869  0.00  0.00    -0.249 OA
BRANCH   8  10
ATOM     10  O   LIG    1       -2.090   2.227  -2.391  0.00  0.00    -0.479 OA
ATOM     11  H   LIG    1       -1.614   2.174  -3.298  0.00  0.00    +0.295 HD
ENDBRANCH   8  10
ENDBRANCH   1   8
BRANCH   1  12
ATOM     12  C   LIG    1       -0.176   0.207  -1.433  0.00  0.00    +0.069 C 
BRANCH  12  13
ATOM     13  C   LIG    1        0.885  -0.318  -0.535  0.00  0.00    -0.041 A 
ATOM     14  C   LIG    1        1.833   0.489   0.060  0.00  0.00    +0.053 A 
ATOM     15  C   LIG    1        2.816  -0.021   0.897  0.00  0.00    +0.158 A 
ATOM     16  C   LIG    1        2.884  -1.371   1.168  0.00  0.00    +0.158 A 
ATOM     17  C   LIG    1        1.942  -2.188   0.579  0.00  0.00    +0.049 A 
ATOM     18  C   LIG    1        0.967  -1.671  -0.253  0.00  0.00    +0.007 A 
BRANCH  15  19
ATOM     19  O   LIG    1        3.775   0.788   1.500  0.00  0.00    -0.503 OA
ATOM     20  H   LIG    1        3.771   1.804   1.332  0.00  0.00    +0.292 HD
ENDBRANCH  15  19
BRANCH  16  21
ATOM     21  O   LIG    1        3.873  -1.877   2.008  0.00  0.00    -0.503 OA
ATOM     22  H   LIG    1        3.958  -2.852   2.231  0.00  0.00    +0.292 HD
ENDBRANCH  16  21
ENDBRANCH  12  13
ENDBRANCH   1  12
TORSDOF 8
