REMARK  Name = molecules/TZFWDZFKRBELIQ-UHFFFAOYSA-N.pdb
REMARK                            x       y       z     vdW  Elec       q    Type
REMARK                         _______ _______ _______ _____ _____    ______ ____
ROOT
ATOM      1  O   LIG    1       -3.816  -0.042   0.045  0.00  0.00    -0.223 OA
ATOM      2  C   LIG    1       -2.542   0.037   0.041  0.00  0.00    +0.419 A 
ATOM      3  O   LIG    1       -1.806   1.105   0.202  0.00  0.00    -0.408 OA
ATOM      4  C   LIG    1       -0.516   0.821   0.139  0.00  0.00    +0.157 A 
ATOM      5  C   LIG    1        0.634   1.574   0.244  0.00  0.00    +0.050 A 
ATOM      6  C   LIG    1        1.860   0.959   0.129  0.00  0.00    +0.024 A 
ATOM      7  C   LIG    1        1.934  -0.399  -0.090  0.00  0.00    +0.043 A 
ATOM      8  C   LIG    1        0.790  -1.154  -0.196  0.00  0.00    +0.049 A 
ATOM      9 CL   LIG    1        3.468  -1.247  -0.247  0.00  0.00    -0.083 Cl
ATOM     10  C   LIG    1       -0.462  -0.542  -0.081  0.00  0.00    +0.089 A 
ATOM     11  N   LIG    1       -1.722  -1.009  -0.139  0.00  0.00    -0.288 N 
ATOM     12  H   LIG    1       -1.958  -2.013  -0.296  0.00  0.00    +0.172 HD
ENDROOT
TORSDOF 0
