REMARK  Name = molecules/TZRXHJWUDPFEEY-UHFFFAOYSA-N.pdb
REMARK                            x       y       z     vdW  Elec       q    Type
REMARK                         _______ _______ _______ _____ _____    ______ ____
ROOT
ATOM      1  C   LIG    1        0.114  -0.227   0.188  0.00  0.00    +0.117 C 
ENDROOT
BRANCH   1   2
ATOM      2  C   LIG    1        0.337  -0.035   1.673  0.00  0.00    +0.284 C 
BRANCH   2   3
ATOM      3  O   LIG    1        0.927   1.219   1.952  0.00  0.00    -0.351 OA
BRANCH   3   4
ATOM      4  N   LIG    1        1.221   1.613   3.210  0.00  0.00    +0.217 N 
ATOM      5  O   LIG    1        0.198   1.790   4.101  0.00  0.00    -0.090 OA
ATOM      6  O   LIG    1        2.420   1.815   3.561  0.00  0.00    -0.090 OA
ENDBRANCH   3   4
ENDBRANCH   2   3
ENDBRANCH   1   2
BRANCH   1   7
ATOM      7  C   LIG    1       -0.464  -1.577  -0.102  0.00  0.00    +0.284 C 
BRANCH   7   8
ATOM      8  O   LIG    1       -1.685  -1.739   0.561  0.00  0.00    -0.351 OA
BRANCH   8   9
ATOM      9  N   LIG    1       -2.473  -2.835   0.519  0.00  0.00    +0.217 N 
ATOM     10  O   LIG    1       -1.993  -3.974   0.605  0.00  0.00    -0.090 OA
ATOM     11  O   LIG    1       -3.826  -2.704   0.379  0.00  0.00    -0.090 OA
ENDBRANCH   8   9
ENDBRANCH   7   8
ENDBRANCH   1   7
BRANCH   1  12
ATOM     12  C   LIG    1       -0.814   0.893  -0.264  0.00  0.00    +0.284 C 
BRANCH  12  13
ATOM     13  O   LIG    1       -1.001   0.898  -1.647  0.00  0.00    -0.351 OA
BRANCH  13  14
ATOM     14  N   LIG    1       -1.817   1.860  -2.188  0.00  0.00    +0.217 N 
ATOM     15  O   LIG    1       -3.040   1.724  -2.062  0.00  0.00    -0.090 OA
ATOM     16  O   LIG    1       -1.339   2.956  -2.856  0.00  0.00    -0.090 OA
ENDBRANCH  13  14
ENDBRANCH  12  13
ENDBRANCH   1  12
BRANCH   1  17
ATOM     17  C   LIG    1        1.440  -0.006  -0.495  0.00  0.00    +0.284 C 
BRANCH  17  18
ATOM     18  O   LIG    1        1.351  -0.026  -1.891  0.00  0.00    -0.351 OA
BRANCH  18  19
ATOM     19  N   LIG    1        2.511   0.167  -2.604  0.00  0.00    +0.217 N 
ATOM     20  O   LIG    1        3.645  -0.098  -2.127  0.00  0.00    -0.090 OA
ATOM     21  O   LIG    1        2.487   0.663  -3.887  0.00  0.00    -0.090 OA
ENDBRANCH  18  19
ENDBRANCH  17  18
ENDBRANCH   1  17
TORSDOF 12
