REMARK  Name = molecules/TZXKOCQBRNJULO-UHFFFAOYSA-N.pdb
REMARK                            x       y       z     vdW  Elec       q    Type
REMARK                         _______ _______ _______ _____ _____    ______ ____
ROOT
ATOM      1  N   LIG    1        0.324   0.253   0.854  0.00  0.00    -0.351 N 
ATOM      2  C   LIG    1       -0.817   0.518   1.536  0.00  0.00    +0.089 A 
ATOM      3  C   LIG    1       -1.993   0.354   0.861  0.00  0.00    +0.072 A 
ATOM      4  C   LIG    1       -2.085  -0.059  -0.454  0.00  0.00    +0.223 A 
ATOM      5  O   LIG    1       -3.171  -0.202  -1.048  0.00  0.00    -0.284 OA
ATOM      6  C   LIG    1       -0.906  -0.322  -1.123  0.00  0.00    +0.183 A 
ATOM      7  C   LIG    1        1.613   0.409   1.517  0.00  0.00    +0.148 C 
ATOM      8  C   LIG    1        0.263  -0.155  -0.440  0.00  0.00    +0.061 A 
ATOM      9  C   LIG    1        1.552  -0.433  -1.142  0.00  0.00    +0.067 C 
ENDROOT
BRANCH   6  10
ATOM     10  O   LIG    1       -0.860  -0.744  -2.445  0.00  0.00    -0.502 OA
ATOM     11  H   LIG    1       -1.673  -0.890  -3.017  0.00  0.00    +0.292 HD
ENDBRANCH   6  10
TORSDOF 1
