REMARK  Name = molecules/UAHFGYDRQSXQEB-PWPYQVNISA-N.pdb
REMARK                            x       y       z     vdW  Elec       q    Type
REMARK                         _______ _______ _______ _____ _____    ______ ____
ROOT
ATOM      1  C   LIG    1       29.311  17.574   0.000  0.00  0.00    +0.279 C 
ATOM      2  O   LIG    1       29.127  18.440   0.000  0.00  0.00    -0.279 OA
ENDROOT
TORSDOF 0
REMARK  Name = molecules/UAHFGYDRQSXQEB-PWPYQVNISA-N.pdb
REMARK                            x       y       z     vdW  Elec       q    Type
REMARK                         _______ _______ _______ _____ _____    ______ ____
ROOT
ATOM      1  N   GLY A  1       28.197  16.570   0.000  0.00  0.00    -0.136 NA
ATOM      2  CA  GLY A  1       26.770  17.033   0.000  0.00  0.00    +0.144 C 
ENDROOT
BRANCH   2   3
ATOM      3  C   GLY A  1       27.233  18.460   0.000  0.00  0.00    +0.225 C 
ATOM      4  O   GLY A  1       27.697  19.887   0.000  0.00  0.00    -0.233 OA
ENDBRANCH   2   3
TORSDOF 1
REMARK  Name = molecules/UAHFGYDRQSXQEB-PWPYQVNISA-N.pdb
REMARK                            x       y       z     vdW  Elec       q    Type
REMARK                         _______ _______ _______ _____ _____    ______ ____
ROOT
ATOM      1  C   LIG    1       27.541  11.474   0.000  0.00  0.00    -0.010 C 
ATOM      2  C   LIG    1       28.967  11.011   0.000  0.00  0.00    +0.047 C 
ENDROOT
BRANCH   2   3
ATOM      3  C   LIG    1       30.082  12.014   0.000  0.00  0.00    +0.175 C 
ATOM      4  O   LIG    1       31.509  11.551   0.000  0.00  0.00    -0.288 OA
ATOM      5  C   LIG    1       29.770  13.482   0.000  0.00  0.00    +0.028 C 
ATOM      6  C   LIG    1       28.344  13.945   0.000  0.00  0.00    +0.030 C 
ENDBRANCH   2   3
BRANCH   1   7
ATOM      7  C   LIG    1       27.229  12.941   0.000  0.00  0.00    +0.036 C 
BRANCH   7  10
ATOM      8  N   LIG    1       24.839  15.295   0.000  0.00  0.00    -0.138 NA
ATOM      9  C   LIG    1       24.376  13.868   0.000  0.00  0.00    +0.114 C 
ATOM     10  C   LIG    1       25.802  13.405   0.000  0.00  0.00    +0.005 C 
ENDBRANCH   7  10
ENDBRANCH   1   7
TORSDOF 3
REMARK  Name = molecules/UAHFGYDRQSXQEB-PWPYQVNISA-N.pdb
REMARK                            x       y       z     vdW  Elec       q    Type
REMARK                         _______ _______ _______ _____ _____    ______ ____
ROOT
ATOM      1  N   GLY A  1       21.834  13.328   0.000  0.00  0.00    -0.134 NA
ATOM      2  CA  GLY A  1       20.408  13.792   0.000  0.00  0.00    +0.160 C 
ATOM      3  C   GLY A  1       20.871  15.218   0.000  0.00  0.00    +0.269 C 
ATOM      4  O   GLY A  1       21.335  16.645   0.000  0.00  0.00    -0.295 OA
ENDROOT
TORSDOF 0
REMARK  Name = molecules/UAHFGYDRQSXQEB-PWPYQVNISA-N.pdb
REMARK                            x       y       z     vdW  Elec       q    Type
REMARK                         _______ _______ _______ _____ _____    ______ ____
ROOT
ATOM      1  C   LIG    1       16.587  11.090   0.000  0.00  0.00    +0.109 C 
ENDROOT
BRANCH   1   2
ATOM      2  N   LIG    1       15.472  10.086   0.000  0.00  0.00    -0.382 N 
ATOM      3  C   LIG    1       14.046  10.550   0.000  0.00  0.00    +0.055 C 
ATOM      4  H   LIG    1       15.901   8.829   0.000  0.00  0.00    +0.160 HD
BRANCH   3   5
ATOM      5  C   LIG    1       14.509  11.977   0.000  0.00  0.00    +0.047 C 
BRANCH   5   6
ATOM      6  C   LIG    1       14.973  13.403   0.000  0.00  0.00    +0.134 C 
BRANCH   6   7
ATOM      7  C   LIG    1       15.436  14.830   0.000  0.00  0.00    +0.357 C 
ATOM      8  O   LIG    1       16.904  15.142   0.000  0.00  0.00    -0.246 OA
ATOM      9  O   LIG    1       14.432  15.944   0.000  0.00  0.00    -0.246 OA
ENDBRANCH   6   7
ENDBRANCH   5   6
ENDBRANCH   3   5
ENDBRANCH   1   2
BRANCH   1  10
ATOM     10  C   LIG    1       18.014  10.627   0.000  0.00  0.00    +0.107 C 
BRANCH  10  11
ATOM     11  N   LIG    1       18.477  12.053   0.000  0.00  0.00    -0.222 NA
ATOM     12  C   LIG    1       19.944  12.365   0.000  0.00  0.00    +0.107 C 
ENDBRANCH  10  11
BRANCH  10  13
ATOM     13  C   LIG    1       19.440  10.163   0.000  0.00  0.00    +0.015 C 
BRANCH  13  14
ATOM     14  C   LIG    1       20.867   9.700   0.000  0.00  0.00    +0.005 C 
BRANCH  14  15
ATOM     15  C   LIG    1       22.293   9.236   0.000  0.00  0.00    -0.003 C 
ATOM     16  C   LIG    1       23.720   8.773   0.000  0.00  0.00    +0.004 C 
ENDBRANCH  14  15
ENDBRANCH  13  14
ENDBRANCH  10  13
ENDBRANCH   1  10
TORSDOF 9
REMARK  Name = molecules/UAHFGYDRQSXQEB-PWPYQVNISA-N.pdb
REMARK                            x       y       z     vdW  Elec       q    Type
REMARK                         _______ _______ _______ _____ _____    ______ ____
ROOT
ATOM      1  C   LIG    1        7.220   5.882   0.000  0.00  0.00    +0.087 C 
ENDROOT
BRANCH   1   2
ATOM      2  N   LIG    1        5.753   5.570   0.000  0.00  0.00    -0.302 NA
ATOM      3  H   LIG    1        4.987   6.656   0.000  0.00  0.00    +0.123 HD
BRANCH   2   4
ATOM      4  C   LIG    1        5.289   4.143   0.000  0.00  0.00    +0.066 C 
ATOM      5  C   LIG    1        3.863   4.607   0.000  0.00  0.00    +0.011 C 
BRANCH   4   6
ATOM      6  C   LIG    1        6.716   3.680   0.000  0.00  0.00    +0.014 C 
BRANCH   6   7
ATOM      7  C   LIG    1        8.142   3.216   0.000  0.00  0.00    +0.046 C 
BRANCH   7   8
ATOM      8  C   LIG    1        9.569   2.753   0.000  0.00  0.00    +0.244 C 
BRANCH   8   9
ATOM      9  N   LIG    1       10.996   2.289   0.000  0.00  0.00    -0.108 NA
BRANCH   9  10
ATOM     10  C   LIG    1       12.110   3.293   0.000  0.00  0.00    +0.457 C 
ATOM     11  N   LIG    1       13.537   2.829   0.000  0.00  0.00    +0.128 NA
BRANCH  10  12
ATOM     12  N   LIG    1       11.798   4.760   0.000  0.00  0.00    -0.284 N 
ATOM     13  H   LIG    1       11.188   5.958   0.000  0.00  0.00    +0.255 HD
ATOM     14  H   LIG    1       12.792   5.449   0.000  0.00  0.00    +0.255 HD
ENDBRANCH  10  12
ENDBRANCH   9  10
ENDBRANCH   8   9
ENDBRANCH   7   8
ENDBRANCH   6   7
ENDBRANCH   4   6
ENDBRANCH   2   4
ENDBRANCH   1   2
BRANCH   1  15
ATOM     15  C   LIG    1        7.684   7.308   0.000  0.00  0.00    +0.137 C 
BRANCH  15  17
ATOM     16  C   LIG    1       10.225   7.848   0.000  0.00  0.00    +0.085 C 
ATOM     17  N   LIG    1        9.110   6.845   0.000  0.00  0.00    -0.278 NA
BRANCH  16  18
ATOM     18  C   LIG    1       11.651   7.385   0.000  0.00  0.00    +0.135 C 
BRANCH  18  19
ATOM     19  N   LIG    1       12.115   8.812   0.000  0.00  0.00    -0.210 NA
ATOM     20  C   LIG    1       13.582   9.123   0.000  0.00  0.00    +0.108 C 
ENDBRANCH  18  19
ENDBRANCH  16  18
ENDBRANCH  15  17
BRANCH  15  21
ATOM     21  C   LIG    1        8.147   8.735   0.000  0.00  0.00    +0.055 C 
BRANCH  21  22
ATOM     22  C   LIG    1        8.611  10.162   0.000  0.00  0.00    -0.042 C 
ATOM     23  C   LIG    1        7.607  11.276   0.000  0.00  0.00    -0.014 C 
BRANCH  23  24
ATOM     24  C   LIG    1        8.070  12.703   0.000  0.00  0.00    +0.045 C 
BRANCH  24  25
ATOM     25  C   LIG    1        9.538  13.015   0.000  0.00  0.00    -0.018 C 
ATOM     26  C   LIG    1       10.541  11.900   0.000  0.00  0.00    -0.004 C 
ENDBRANCH  24  25
ENDBRANCH  23  24
ENDBRANCH  21  22
ENDBRANCH  15  21
ENDBRANCH   1  15
TORSDOF 16
REMARK  Name = molecules/UAHFGYDRQSXQEB-PWPYQVNISA-N.pdb
REMARK                            x       y       z     vdW  Elec       q    Type
REMARK                         _______ _______ _______ _____ _____    ______ ____
ROOT
ATOM      1  C   LIG    1        0.858   2.640   0.000  0.00  0.00    +0.236 C 
ATOM      2  O   LIG    1       -0.609   2.328   0.000  0.00  0.00    -0.274 OA
ATOM      3  N   LIG    1        1.861   1.525   0.000  0.00  0.00    -0.305 N 
ATOM      4  H   LIG    1        2.951   1.621   0.000  0.00  0.00    +0.149 HD
ENDROOT
BRANCH   1   5
ATOM      5  C   LIG    1        1.321   4.067   0.000  0.00  0.00    +0.178 C 
BRANCH   5   6
ATOM      6  N   LIG    1        2.748   3.603   0.000  0.00  0.00    -0.240 NA
ATOM      7  H   LIG    1        3.104   2.569   0.000  0.00  0.00    +0.142 HD
ENDBRANCH   5   6
BRANCH   5   8
ATOM      8  C   LIG    1        1.785   5.493   0.000  0.00  0.00    +0.011 C 
ATOM      9  C   LIG    1        2.248   6.920   0.000  0.00  0.00    -0.010 C 
BRANCH   9  10
ATOM     10  C   LIG    1        1.367   8.133   0.000  0.00  0.00    +0.007 A 
ATOM     11  C   LIG    1       -0.125   8.290   0.000  0.00  0.00    +0.010 A 
ATOM     12  C   LIG    1       -0.735   9.661   0.000  0.00  0.00    +0.001 A 
ATOM     13  C   LIG    1        0.146  10.874   0.000  0.00  0.00    +0.002 A 
ATOM     14  C   LIG    1        1.638  10.717   0.000  0.00  0.00    +0.027 A 
ATOM     15  C   LIG    1        2.248   9.347   0.000  0.00  0.00    +0.080 A 
ATOM     16  N   LIG    1        3.675   8.883   0.000  0.00  0.00    -0.129 NA
ENDBRANCH   9  10
ENDBRANCH   5   8
ENDBRANCH   1   5
BRANCH   3  17
ATOM     17  C   LIG    1        1.398   0.099   0.000  0.00  0.00    +0.205 C 
BRANCH  17  18
ATOM     18  C   LIG    1        0.934  -1.328   0.000  0.00  0.00    +0.263 C 
ATOM     19  O   LIG    1        1.760  -2.045   0.000  0.00  0.00    -0.269 OA
ATOM     20  O   LIG    1        1.326  -2.903   0.000  0.00  0.00    -0.269 OA
ATOM     21  C   LIG    1        0.430  -3.530   0.000  0.00  0.00    +0.253 C 
ATOM     22  C   LIG    1       -0.996  -3.066   0.000  0.00  0.00    +0.136 C 
ATOM     23  N   LIG    1       -0.533  -1.640   0.000  0.00  0.00    -0.220 NA
BRANCH  21  24
ATOM     24  N   LIG    1        0.742  -4.997   0.000  0.00  0.00    -0.290 N 
ATOM     25  C   LIG    1       -0.262  -6.112   0.000  0.00  0.00    +0.121 C 
BRANCH  24  26
ATOM     26  C   LIG    1        2.112  -5.607   0.000  0.00  0.00    +0.108 C 
ATOM     27  C   LIG    1        1.956  -7.099   0.000  0.00  0.00    +0.020 C 
ENDBRANCH  24  26
ENDBRANCH  21  24
BRANCH  22  28
ATOM     28  C   LIG    1       -2.423  -2.603   0.000  0.00  0.00    +0.051 C 
BRANCH  28  29
ATOM     29  C   LIG    1       -3.849  -2.139   0.000  0.00  0.00    +0.007 C 
BRANCH  29  30
ATOM     30  C   LIG    1       -5.276  -1.676   0.000  0.00  0.00    +0.019 C 
BRANCH  30  31
ATOM     31  C   LIG    1       -6.703  -1.212   0.000  0.00  0.00    +0.124 C 
ATOM     32  N   LIG    1       -8.129  -0.749   0.000  0.00  0.00    -0.143 NA
ENDBRANCH  30  31
ENDBRANCH  29  30
ENDBRANCH  28  29
ENDBRANCH  22  28
ENDBRANCH  17  18
ENDBRANCH   3  17
TORSDOF 12
REMARK  Name = molecules/UAHFGYDRQSXQEB-PWPYQVNISA-N.pdb
REMARK                            x       y       z     vdW  Elec       q    Type
REMARK                         _______ _______ _______ _____ _____    ______ ____
ROOT
ATOM      1  N   LIG    1       -1.318  -8.485   0.000  0.00  0.00    -0.135 NA
ATOM      2  C   LIG    1       -2.532  -9.367   0.000  0.00  0.00    +0.153 C 
ENDROOT
BRANCH   2   3
ATOM      3  C   LIG    1       -1.650 -10.580   0.000  0.00  0.00    +0.014 C 
ATOM      4  C   LIG    1       -0.768 -11.794   0.000  0.00  0.00    +0.009 C 
ATOM      5  C   LIG    1       -0.437  -9.699   0.000  0.00  0.00    +0.001 C 
ENDBRANCH   2   3
BRANCH   2   6
ATOM      6  C   LIG    1       -3.413  -8.153   0.000  0.00  0.00    +0.254 C 
ATOM      7  N   LIG    1       -4.905  -8.310   0.000  0.00  0.00    -0.096 NA
BRANCH   6   8
ATOM      8  O   LIG    1       -3.094  -7.108   0.000  0.00  0.00    -0.203 OA
BRANCH   8   9
ATOM      9  O   LIG    1       -2.412  -6.430   0.000  0.00  0.00    -0.224 OA
ATOM     10  C   LIG    1       -1.475  -6.993   0.000  0.00  0.00    +0.225 C 
ENDBRANCH   8   9
ENDBRANCH   6   8
ENDBRANCH   2   6
TORSDOF 4
REMARK  Name = molecules/UAHFGYDRQSXQEB-PWPYQVNISA-N.pdb
REMARK                            x       y       z     vdW  Elec       q    Type
REMARK                         _______ _______ _______ _____ _____    ______ ____
ROOT
ATOM      1  C   LIG    1       30.738  17.110   0.000  0.00  0.00    +0.000 C 
ENDROOT
TORSDOF 0
REMARK  Name = molecules/UAHFGYDRQSXQEB-PWPYQVNISA-N.pdb
REMARK                            x       y       z     vdW  Elec       q    Type
REMARK                         _______ _______ _______ _____ _____    ______ ____
ROOT
ATOM      1  C   LIG    1       26.306  15.607   0.000  0.00  0.00    +0.000 C 
ENDROOT
TORSDOF 0
REMARK  Name = molecules/UAHFGYDRQSXQEB-PWPYQVNISA-N.pdb
REMARK                            x       y       z     vdW  Elec       q    Type
REMARK                         _______ _______ _______ _____ _____    ______ ____
ROOT
ATOM      1  O   HOH    1       27.210  14.604   0.000  0.00  0.00    -0.410 OA
ATOM      2  H   HOH    0       26.518  14.550   0.000  0.00  0.00    +0.205 HD
ATOM      3  H   HOH    0       27.855  15.363   0.000  0.00  0.00    +0.205 HD
ENDROOT
TORSDOF 0
REMARK  Name = molecules/UAHFGYDRQSXQEB-PWPYQVNISA-N.pdb
REMARK                            x       y       z     vdW  Elec       q    Type
REMARK                         _______ _______ _______ _____ _____    ______ ____
ROOT
ATOM      1  C   LIG    1       22.949  14.332   0.000  0.00  0.00    +0.000 C 
ENDROOT
TORSDOF 0
REMARK  Name = molecules/UAHFGYDRQSXQEB-PWPYQVNISA-N.pdb
REMARK                            x       y       z     vdW  Elec       q    Type
REMARK                         _______ _______ _______ _____ _____    ______ ____
ROOT
ATOM      1  O   HOH    1       22.637  15.799   0.000  0.00  0.00    -0.410 OA
ATOM      2  H   HOH    0       22.802  16.957   0.000  0.00  0.00    +0.205 HD
ATOM      3  H   HOH    0       22.368  15.114   0.000  0.00  0.00    +0.205 HD
ENDROOT
TORSDOF 0
REMARK  Name = molecules/UAHFGYDRQSXQEB-PWPYQVNISA-N.pdb
REMARK                            x       y       z     vdW  Elec       q    Type
REMARK                         _______ _______ _______ _____ _____    ______ ____
ROOT
ATOM      1  O   HOH    1       21.076  11.381   0.000  0.00  0.00    -0.410 OA
ATOM      2  H   HOH    0       22.146  11.861   0.000  0.00  0.00    +0.205 HD
ATOM      3  H   HOH    0       20.235  11.435   0.000  0.00  0.00    +0.205 HD
ENDROOT
TORSDOF 0
REMARK  Name = molecules/UAHFGYDRQSXQEB-PWPYQVNISA-N.pdb
REMARK                            x       y       z     vdW  Elec       q    Type
REMARK                         _______ _______ _______ _____ _____    ______ ____
ROOT
ATOM      1  O   HOH    1       16.456  12.585   0.000  0.00  0.00    -0.410 OA
ATOM      2  H   HOH    0       17.473  13.168   0.000  0.00  0.00    +0.205 HD
ATOM      3  H   HOH    0       16.006  11.872   0.000  0.00  0.00    +0.205 HD
ENDROOT
TORSDOF 0
REMARK  Name = molecules/UAHFGYDRQSXQEB-PWPYQVNISA-N.pdb
REMARK                            x       y       z     vdW  Elec       q    Type
REMARK                         _______ _______ _______ _____ _____    ______ ____
ROOT
ATOM      1  C   LIG    1       14.505   6.458   0.000  0.00  0.00    +0.113 C 
ENDROOT
BRANCH   1   2
ATOM      2  N   LIG    1       14.968   5.031   0.000  0.00  0.00    -0.321 N 
ATOM      3  H   LIG    1       14.652   3.833   0.000  0.00  0.00    +0.148 HD
BRANCH   2   4
ATOM      4  C   LIG    1       16.468   5.031   0.000  0.00  0.00    +0.206 C 
ATOM      5  N   LIG    1       16.932   6.458   0.000  0.00  0.00    -0.141 NA
ENDBRANCH   2   4
ENDBRANCH   1   2
BRANCH   1   6
ATOM      6  C   LIG    1       15.718   7.340   0.000  0.00  0.00    +0.173 C 
BRANCH   6   7
ATOM      7  O   LIG    1       14.586   8.009   0.000  0.00  0.00    -0.387 OA
ATOM      8  H   LIG    1       13.873   8.194   0.000  0.00  0.00    +0.210 HD
ENDBRANCH   6   7
ENDBRANCH   1   6
TORSDOF 4
REMARK  Name = molecules/UAHFGYDRQSXQEB-PWPYQVNISA-N.pdb
REMARK                            x       y       z     vdW  Elec       q    Type
REMARK                         _______ _______ _______ _____ _____    ______ ____
ROOT
ATOM      1  C   LIG    1       13.078   6.921   0.000  0.00  0.00    +0.000 C 
ENDROOT
TORSDOF 0
REMARK  Name = molecules/UAHFGYDRQSXQEB-PWPYQVNISA-N.pdb
REMARK                            x       y       z     vdW  Elec       q    Type
REMARK                         _______ _______ _______ _____ _____    ______ ____
ROOT
ATOM      1  O   HOH    1        9.913   9.316   0.000  0.00  0.00    -0.410 OA
ATOM      2  H   HOH    0       10.938   9.245   0.000  0.00  0.00    +0.205 HD
ATOM      3  H   HOH    0        9.643   8.630   0.000  0.00  0.00    +0.205 HD
ENDROOT
TORSDOF 0
REMARK  Name = molecules/UAHFGYDRQSXQEB-PWPYQVNISA-N.pdb
REMARK                            x       y       z     vdW  Elec       q    Type
REMARK                         _______ _______ _______ _____ _____    ______ ____
ROOT
ATOM      1  C   LIG    1       10.078  10.473   0.000  0.00  0.00    +0.000 C 
ENDROOT
TORSDOF 0
REMARK  Name = molecules/UAHFGYDRQSXQEB-PWPYQVNISA-N.pdb
REMARK                            x       y       z     vdW  Elec       q    Type
REMARK                         _______ _______ _______ _____ _____    ______ ____
ROOT
ATOM      1  O   HOH    1        8.352   4.898   0.000  0.00  0.00    -0.410 OA
ATOM      2  H   HOH    0        7.511   4.952   0.000  0.00  0.00    +0.205 HD
ATOM      3  H   HOH    0        9.422   5.378   0.000  0.00  0.00    +0.205 HD
ENDROOT
TORSDOF 0
REMARK  Name = molecules/UAHFGYDRQSXQEB-PWPYQVNISA-N.pdb
REMARK                            x       y       z     vdW  Elec       q    Type
REMARK                         _______ _______ _______ _____ _____    ______ ____
ROOT
ATOM      1  O   LIG    1        3.551   6.074   0.000  0.00  0.00    -0.386 OA
ATOM      2  C   LIG    1        3.675   7.383   0.000  0.00  0.00    +0.176 C 
ATOM      3  H   LIG    1        3.281   5.389   0.000  0.00  0.00    +0.210 HD
ENDROOT
TORSDOF 0
REMARK  Name = molecules/UAHFGYDRQSXQEB-PWPYQVNISA-N.pdb
REMARK                            x       y       z     vdW  Elec       q    Type
REMARK                         _______ _______ _______ _____ _____    ______ ____
ROOT
ATOM      1  C   LIG    1        0.488  -7.411   0.000  0.00  0.00    +0.000 C 
ENDROOT
TORSDOF 0
REMARK  Name = molecules/UAHFGYDRQSXQEB-PWPYQVNISA-N.pdb
REMARK                            x       y       z     vdW  Elec       q    Type
REMARK                         _______ _______ _______ _____ _____    ______ ____
ROOT
ATOM      1  H   UNK    1       23.835  16.410   0.000  0.00  0.00    +0.000 HD
ENDROOT
TORSDOF 0
REMARK  Name = molecules/UAHFGYDRQSXQEB-PWPYQVNISA-N.pdb
REMARK                            x       y       z     vdW  Elec       q    Type
REMARK                         _______ _______ _______ _____ _____    ______ ____
ROOT
ATOM      1  H   UNK    1       -1.393  -0.411   0.000  0.00  0.00    +0.000 HD
ENDROOT
TORSDOF 0
REMARK  Name = molecules/UAHFGYDRQSXQEB-PWPYQVNISA-N.pdb
REMARK                            x       y       z     vdW  Elec       q    Type
REMARK                         _______ _______ _______ _____ _____    ______ ____
ROOT
ATOM      1  H   UNK    1       -5.787  -7.097   0.000  0.00  0.00    +0.000 HD
ENDROOT
TORSDOF 0
REMARK  Name = molecules/UAHFGYDRQSXQEB-PWPYQVNISA-N.pdb
REMARK                            x       y       z     vdW  Elec       q    Type
REMARK                         _______ _______ _______ _____ _____    ______ ____
ROOT
ATOM      1  H   UNK    1       -5.515  -9.680   0.000  0.00  0.00    +0.000 HD
ENDROOT
TORSDOF 0
REMARK  Name = molecules/UAHFGYDRQSXQEB-PWPYQVNISA-N.pdb
REMARK                            x       y       z     vdW  Elec       q    Type
REMARK                         _______ _______ _______ _____ _____    ______ ____
ROOT
ATOM      1  H   UNK    1       29.164  20.198   0.000  0.00  0.00    +0.000 HD
ENDROOT
TORSDOF 0
REMARK  Name = molecules/UAHFGYDRQSXQEB-PWPYQVNISA-N.pdb
REMARK                            x       y       z     vdW  Elec       q    Type
REMARK                         _______ _______ _______ _____ _____    ______ ____
ROOT
ATOM      1  H   UNK    1       32.623  12.555   0.000  0.00  0.00    +0.000 HD
ENDROOT
TORSDOF 0
REMARK  Name = molecules/UAHFGYDRQSXQEB-PWPYQVNISA-N.pdb
REMARK                            x       y       z     vdW  Elec       q    Type
REMARK                         _______ _______ _______ _____ _____    ______ ____
ROOT
ATOM      1  H   UNK    1       14.896  17.371   0.000  0.00  0.00    +0.000 HD
ENDROOT
TORSDOF 0
REMARK  Name = molecules/UAHFGYDRQSXQEB-PWPYQVNISA-N.pdb
REMARK                            x       y       z     vdW  Elec       q    Type
REMARK                         _______ _______ _______ _____ _____    ______ ____
ROOT
ATOM      1  H   UNK    1       18.358   6.921   0.000  0.00  0.00    +0.000 HD
ENDROOT
TORSDOF 0
REMARK  Name = molecules/UAHFGYDRQSXQEB-PWPYQVNISA-N.pdb
REMARK                            x       y       z     vdW  Elec       q    Type
REMARK                         _______ _______ _______ _____ _____    ______ ____
ROOT
ATOM      1  H   UNK    1       11.307   0.822   0.000  0.00  0.00    +0.000 HD
ENDROOT
TORSDOF 0
REMARK  Name = molecules/UAHFGYDRQSXQEB-PWPYQVNISA-N.pdb
REMARK                            x       y       z     vdW  Elec       q    Type
REMARK                         _______ _______ _______ _____ _____    ______ ____
ROOT
ATOM      1  H   UNK    1       10.372   5.224   0.000  0.00  0.00    +0.000 HD
ENDROOT
TORSDOF 0
REMARK  Name = molecules/UAHFGYDRQSXQEB-PWPYQVNISA-N.pdb
REMARK                            x       y       z     vdW  Elec       q    Type
REMARK                         _______ _______ _______ _____ _____    ______ ____
ROOT
ATOM      1  H   UNK    1        4.888   9.765   0.000  0.00  0.00    +0.000 HD
ENDROOT
TORSDOF 0
REMARK  Name = molecules/UAHFGYDRQSXQEB-PWPYQVNISA-N.pdb
REMARK                            x       y       z     vdW  Elec       q    Type
REMARK                         _______ _______ _______ _____ _____    ______ ____
ROOT
ATOM      1  H   UNK    1       -8.441   0.719   0.000  0.00  0.00    +0.000 HD
ENDROOT
TORSDOF 0
REMARK  Name = molecules/UAHFGYDRQSXQEB-PWPYQVNISA-N.pdb
REMARK                            x       y       z     vdW  Elec       q    Type
REMARK                         _______ _______ _______ _____ _____    ______ ____
ROOT
ATOM      1  H   UNK    1       -9.244  -1.752   0.000  0.00  0.00    +0.000 HD
ENDROOT
TORSDOF 0
REMARK  Name = molecules/UAHFGYDRQSXQEB-PWPYQVNISA-N.pdb
REMARK                            x       y       z     vdW  Elec       q    Type
REMARK                         _______ _______ _______ _____ _____    ______ ____
ROOT
ATOM      1  H   UNK    1        1.122  -8.770   0.000  0.00  0.00    +0.000 HD
ENDROOT
TORSDOF 0
REMARK  Name = molecules/UAHFGYDRQSXQEB-PWPYQVNISA-N.pdb
REMARK                            x       y       z     vdW  Elec       q    Type
REMARK                         _______ _______ _______ _____ _____    ______ ____
ROOT
ATOM      1  H   UNK    1        0.954  -9.137   0.000  0.00  0.00    +0.000 HD
ENDROOT
TORSDOF 0
REMARK  Name = molecules/UAHFGYDRQSXQEB-PWPYQVNISA-N.pdb
REMARK                            x       y       z     vdW  Elec       q    Type
REMARK                         _______ _______ _______ _____ _____    ______ ____
ROOT
ATOM      1  H   UNK    1        0.587 -10.796   0.000  0.00  0.00    +0.000 HD
ENDROOT
TORSDOF 0
