REMARK  Name = molecules/UAORFCGRZIGNCI-LLVKDONJSA-N.pdb
REMARK                            x       y       z     vdW  Elec       q    Type
REMARK                         _______ _______ _______ _____ _____    ______ ____
ROOT
ATOM      1  C   LIG    1       -0.254   1.495  -0.940  0.00  0.00    +0.158 C 
ENDROOT
BRANCH   1   2
ATOM      2  C   LIG    1       -1.293   0.654  -0.357  0.00  0.00    -0.018 A 
ATOM      3  C   LIG    1       -1.142  -0.558   0.249  0.00  0.00    +0.008 A 
ATOM      4  C   LIG    1       -2.227  -1.262   0.773  0.00  0.00    +0.033 A 
ATOM      5  C   LIG    1       -3.506  -0.756   0.698  0.00  0.00    +0.126 A 
ATOM      6  C   LIG    1       -3.655   0.468   0.087  0.00  0.00    +0.033 A 
ATOM      7  C   LIG    1       -2.594   1.174  -0.435  0.00  0.00    +0.008 A 
BRANCH   5   8
ATOM      8  N   LIG    1       -4.608  -1.483   1.237  0.00  0.00    +0.056 N 
ATOM      9  O   LIG    1       -4.468  -2.579   1.783  0.00  0.00    -0.126 OA
ATOM     10  O   LIG    1       -5.863  -0.936   1.140  0.00  0.00    -0.126 OA
ENDBRANCH   5   8
ENDBRANCH   1   2
BRANCH   1  11
ATOM     11  O   LIG    1       -0.731   1.896  -2.214  0.00  0.00    -0.386 OA
ATOM     12  H   LIG    1       -0.399   1.231  -2.878  0.00  0.00    +0.210 HD
ENDBRANCH   1  11
BRANCH   1  13
ATOM     13  C   LIG    1        1.110   0.970  -1.039  0.00  0.00    +0.117 C 
BRANCH  13  14
ATOM     14  N   LIG    1        1.644   0.563   0.240  0.00  0.00    -0.311 NA
ATOM     15  H   LIG    1        1.519   1.248   0.992  0.00  0.00    +0.122 HD
BRANCH  14  16
ATOM     16  C   LIG    1        2.976   0.043   0.197  0.00  0.00    +0.048 C 
ATOM     17  C   LIG    1        3.385  -0.214   1.647  0.00  0.00    +0.023 C 
ATOM     18  C   LIG    1        3.120  -1.267  -0.517  0.00  0.00    +0.023 C 
ENDBRANCH  14  16
ENDBRANCH  13  14
ENDBRANCH   1  13
TORSDOF 6
