REMARK  Name = molecules/UAUHEPXILIZYCU-ALHOSYKFSA-N.pdb
REMARK                            x       y       z     vdW  Elec       q    Type
REMARK                         _______ _______ _______ _____ _____    ______ ____
ROOT
ATOM      1  C   LIG    1        0.788  -2.142   0.400  0.00  0.00    +0.129 C 
ATOM      2  C   LIG    1        1.489  -0.849   0.183  0.00  0.00    +0.039 C 
ATOM      3  C   LIG    1        0.978   0.271   1.037  0.00  0.00    +0.073 C 
ATOM      4  C   LIG    1       -0.435   0.636   0.883  0.00  0.00    -0.039 C 
ATOM      5  C   LIG    1       -1.194  -0.316   1.837  0.00  0.00    -0.009 C 
ATOM      6  C   LIG    1       -1.576  -1.508   0.966  0.00  0.00    -0.005 C 
ATOM      7  C   LIG    1       -2.836  -0.998   0.277  0.00  0.00    +0.004 C 
ATOM      8  C   LIG    1       -2.445   0.254  -0.435  0.00  0.00    +0.070 C 
ATOM      9  N   LIG    1       -1.018   0.569  -0.419  0.00  0.00    +0.403 N 
ATOM     10  C   LIG    1       -0.420  -0.605  -1.069  0.00  0.00    -0.054 C 
ATOM     11  N   LIG    1        1.994   1.246   0.869  0.00  0.00    -0.330 N 
ATOM     12  C   LIG    1        3.220   0.477   0.787  0.00  0.00    +0.034 A 
ATOM     13  C   LIG    1        4.554   0.788   1.038  0.00  0.00    +0.023 A 
ATOM     14  C   LIG    1        5.563  -0.141   0.889  0.00  0.00    +0.002 A 
ATOM     15  C   LIG    1        5.209  -1.409   0.476  0.00  0.00    +0.000 A 
ATOM     16  C   LIG    1        3.902  -1.765   0.214  0.00  0.00    +0.006 A 
ATOM     17  C   LIG    1        2.010   2.681   0.785  0.00  0.00    +0.129 C 
ATOM     18  C   LIG    1        2.908  -0.804   0.375  0.00  0.00    -0.016 A 
ATOM     19  C   LIG    1        1.038  -0.547  -1.252  0.00  0.00    +0.001 C 
ATOM     20  C   LIG    1       -0.589  -1.785  -0.127  0.00  0.00    +0.009 C 
ENDROOT
BRANCH   1  21
ATOM     21  O   LIG    1        1.318  -3.094  -0.452  0.00  0.00    -0.391 OA
ATOM     22  H   LIG    1        0.797  -3.244  -1.265  0.00  0.00    +0.210 HD
ENDBRANCH   1  21
BRANCH   8  23
ATOM     23  O   LIG    1       -3.273   1.273  -0.069  0.00  0.00    -0.409 OA
ATOM     24  H   LIG    1       -4.024   1.432  -0.713  0.00  0.00    +0.207 HD
ENDBRANCH   8  23
BRANCH   7  25
ATOM     25  C   LIG    1       -3.491  -2.027  -0.577  0.00  0.00    +0.001 C 
ATOM     26  C   LIG    1       -3.858  -3.196   0.350  0.00  0.00    +0.004 C 
ENDBRANCH   7  25
BRANCH   9  27
ATOM     27  C   LIG    1       -0.851   1.712  -1.252  0.00  0.00    -0.071 C 
BRANCH  27  28
ATOM     28  C   LIG    1       -1.242   3.036  -0.758  0.00  0.00    -0.021 C 
ATOM     29  C   LIG    1       -0.946   4.122  -1.820  0.00  0.00    +0.002 C 
ENDBRANCH  27  28
ENDBRANCH   9  27
TORSDOF 5
