REMARK  Name = molecules/UBAJTZKNDCEGKL-UHFFFAOYSA-N.pdb
REMARK                            x       y       z     vdW  Elec       q    Type
REMARK                         _______ _______ _______ _____ _____    ______ ____
ROOT
ATOM      1  C   LIG    1       -1.142  -1.167   0.346  0.00  0.00    +0.181 C 
ENDROOT
BRANCH   1   3
ATOM      2  O   LIG    1       -1.765   0.954   0.302  0.00  0.00    -0.273 OA
ATOM      3  C   LIG    1       -2.252  -0.239   0.167  0.00  0.00    +0.238 C 
ATOM      4  N   LIG    1       -3.626  -0.349  -0.107  0.00  0.00    -0.237 N 
ATOM      5  C   LIG    1       -4.254  -1.651  -0.254  0.00  0.00    +0.052 C 
ATOM      6  C   LIG    1       -3.552  -2.809   0.065  0.00  0.00    +0.024 C 
ATOM      7  C   LIG    1       -4.146  -4.060  -0.004  0.00  0.00    -0.002 C 
ATOM      8  C   LIG    1       -5.429  -4.203  -0.382  0.00  0.00    -0.017 C 
ATOM      9  C   LIG    1       -6.123  -3.076  -0.695  0.00  0.00    +0.062 C 
ATOM     10  C   LIG    1       -5.566  -1.851  -0.636  0.00  0.00    +0.020 C 
ATOM     11  S   LIG    1       -6.594  -0.493  -1.105  0.00  0.00    -0.089 S 
ATOM     12  C   LIG    1       -5.665   0.969  -0.735  0.00  0.00    +0.034 A 
ATOM     13  C   LIG    1       -6.362   2.171  -0.896  0.00  0.00    +0.017 A 
ATOM     14  C   LIG    1       -5.721   3.350  -0.661  0.00  0.00    +0.001 A 
ATOM     15  C   LIG    1       -4.404   3.308  -0.272  0.00  0.00    +0.002 A 
ATOM     16  C   LIG    1       -3.727   2.094  -0.116  0.00  0.00    +0.025 A 
ATOM     17  C   LIG    1       -4.364   0.889  -0.350  0.00  0.00    +0.055 A 
ENDBRANCH   1   3
BRANCH   1  18
ATOM     18  N   LIG    1        0.144  -0.451   0.559  0.00  0.00    -0.292 NA
ATOM     19  C   LIG    1        0.222   0.244   1.781  0.00  0.00    +0.100 C 
ATOM     20  C   LIG    1        1.119   1.468   1.536  0.00  0.00    +0.100 C 
ATOM     21  N   LIG    1        2.375   0.872   1.040  0.00  0.00    -0.296 NA
ATOM     22  C   LIG    1        2.107   0.565  -0.354  0.00  0.00    +0.100 C 
ATOM     23  C   LIG    1        0.675   0.144  -0.600  0.00  0.00    +0.100 C 
BRANCH  21  24
ATOM     24  C   LIG    1        3.440   1.848   1.172  0.00  0.00    +0.119 C 
BRANCH  24  25
ATOM     25  C   LIG    1        4.712   1.235   0.702  0.00  0.00    -0.030 A 
ATOM     26  C   LIG    1        4.924  -0.140   0.812  0.00  0.00    +0.054 A 
ATOM     27  C   LIG    1        6.085  -0.743   0.396  0.00  0.00    +0.167 A 
ATOM     28  O   LIG    1        6.517  -2.062   0.402  0.00  0.00    -0.453 OA
ATOM     29  C   LIG    1        7.647  -2.183  -0.435  0.00  0.00    +0.466 C 
ATOM     30  O   LIG    1        8.145  -0.860  -0.484  0.00  0.00    -0.453 OA
ATOM     31  C   LIG    1        7.103   0.003  -0.157  0.00  0.00    +0.166 A 
ATOM     32  C   LIG    1        6.907   1.371  -0.273  0.00  0.00    +0.050 A 
ATOM     33  C   LIG    1        5.736   1.966   0.149  0.00  0.00    +0.009 A 
ENDBRANCH  24  25
ENDBRANCH  21  24
ENDBRANCH   1  18
TORSDOF 4
