REMARK  Name = molecules/UBNYRXMKIIGMKK-UHFFFAOYSA-N.pdb
REMARK                            x       y       z     vdW  Elec       q    Type
REMARK                         _______ _______ _______ _____ _____    ______ ____
ROOT
ATOM      1  C   LIG    1        1.174   0.041  -1.171  0.00  0.00    +0.015 C 
ATOM      2  C   LIG    1        0.017  -0.260  -0.641  0.00  0.00    +0.092 C 
ENDROOT
BRANCH   1   3
ATOM      3  C   LIG    1        2.416  -0.105  -0.438  0.00  0.00    -0.025 A 
ATOM      4  C   LIG    1        2.478  -0.564   0.854  0.00  0.00    +0.011 A 
ATOM      5  C   LIG    1        3.702  -0.673   1.477  0.00  0.00    +0.046 A 
ATOM      6  C   LIG    1        4.904  -0.347   0.890  0.00  0.00    +0.120 A 
ATOM      7  C   LIG    1        4.818   0.113  -0.409  0.00  0.00    +0.046 A 
ATOM      8  C   LIG    1        3.620   0.232  -1.055  0.00  0.00    +0.011 A 
BRANCH   6   9
ATOM      9  O   LIG    1        6.117  -0.471   1.553  0.00  0.00    -0.495 OA
ATOM     10  C   LIG    1        7.289  -0.114   0.871  0.00  0.00    +0.277 C 
ENDBRANCH   6   9
ENDBRANCH   1   3
BRANCH   2  11
ATOM     11  C   LIG    1       -1.219  -0.089  -1.439  0.00  0.00    +0.332 C 
ATOM     12  O   LIG    1       -1.156   0.335  -2.600  0.00  0.00    -0.246 OA
BRANCH  11  13
ATOM     13  O   LIG    1       -2.430  -0.402  -0.891  0.00  0.00    -0.462 OA
BRANCH  13  14
ATOM     14  C   LIG    1       -3.669  -0.270  -1.584  0.00  0.00    +0.232 C 
BRANCH  14  15
ATOM     15  C   LIG    1       -4.750  -0.708  -0.654  0.00  0.00    +0.044 C 
BRANCH  15  16
ATOM     16  C   LIG    1       -4.811   0.115   0.612  0.00  0.00    -0.014 C 
ATOM     17  C   LIG    1       -3.563  -0.015   1.438  0.00  0.00    +0.007 C 
ATOM     18  C   LIG    1       -5.064   1.573   0.354  0.00  0.00    +0.007 C 
ENDBRANCH  15  16
ENDBRANCH  14  15
ENDBRANCH  13  14
ENDBRANCH  11  13
ENDBRANCH   2  11
TORSDOF 7
