REMARK  Name = molecules/UBQYURCVBFRUQT-UHFFFAOYSA-N.pdb
REMARK                            x       y       z     vdW  Elec       q    Type
REMARK                         _______ _______ _______ _____ _____    ______ ____
ROOT
ATOM      1  C   LIG    1       -0.500   1.783  -4.269  0.00  0.00    +0.139 C 
ENDROOT
BRANCH   1   4
ATOM      2  C   LIG    1       -2.453   2.324  -2.805  0.00  0.00    +0.238 C 
ATOM      3  O   LIG    1       -2.285   3.571  -2.858  0.00  0.00    -0.274 OA
ATOM      4  N   LIG    1       -1.607   1.397  -3.479  0.00  0.00    -0.184 N 
BRANCH   4   5
ATOM      5  O   LIG    1       -1.977   0.068  -3.383  0.00  0.00    -0.292 OA
ATOM      6  H   LIG    1       -2.111  -0.341  -4.258  0.00  0.00    +0.242 HD
ENDBRANCH   4   5
BRANCH   2   7
ATOM      7  C   LIG    1       -3.578   1.794  -2.011  0.00  0.00    +0.107 C 
BRANCH   7   8
ATOM      8  C   LIG    1       -4.435   2.929  -1.519  0.00  0.00    +0.105 C 
BRANCH   8   9
ATOM      9  C   LIG    1       -5.562   2.316  -0.724  0.00  0.00    +0.213 C 
ATOM     10  N   LIG    1       -6.547   3.162  -0.201  0.00  0.00    -0.315 N 
ATOM     11  H   LIG    1       -6.497   4.186  -0.375  0.00  0.00    +0.149 HD
ATOM     12  O   LIG    1       -5.539   1.077  -0.583  0.00  0.00    -0.276 OA
BRANCH  10  13
ATOM     13  C   LIG    1       -7.645   2.644   0.580  0.00  0.00    +0.104 C 
BRANCH  13  14
ATOM     14  C   LIG    1       -7.112   1.999   1.820  0.00  0.00    +0.019 C 
BRANCH  14  15
ATOM     15  C   LIG    1       -8.165   1.427   2.713  0.00  0.00    +0.003 C 
BRANCH  15  16
ATOM     16  C   LIG    1       -8.934   0.344   2.011  0.00  0.00    +0.021 C 
BRANCH  16  17
ATOM     17  C   LIG    1       -7.977  -0.761   1.621  0.00  0.00    +0.139 C 
BRANCH  17  18
ATOM     18  N   LIG    1       -8.681  -1.827   0.962  0.00  0.00    -0.184 N 
ATOM     19  C   LIG    1       -9.208  -2.898   1.683  0.00  0.00    +0.235 C 
ATOM     20  C   LIG    1       -9.079  -2.983   3.147  0.00  0.00    +0.111 C 
ATOM     21  O   LIG    1       -9.815  -3.832   1.095  0.00  0.00    -0.274 OA
BRANCH  18  22
ATOM     22  O   LIG    1       -8.834  -1.776  -0.376  0.00  0.00    -0.292 OA
ATOM     23  H   LIG    1       -8.231  -2.431  -0.830  0.00  0.00    +0.242 HD
ENDBRANCH  18  22
ENDBRANCH  17  18
ENDBRANCH  16  17
ENDBRANCH  15  16
ENDBRANCH  14  15
ENDBRANCH  13  14
ENDBRANCH  10  13
ENDBRANCH   8   9
ENDBRANCH   7   8
ENDBRANCH   2   7
ENDBRANCH   1   4
BRANCH   1  24
ATOM     24  C   LIG    1        0.828   1.983  -3.678  0.00  0.00    +0.021 C 
BRANCH  24  25
ATOM     25  C   LIG    1        1.513   0.914  -2.947  0.00  0.00    +0.003 C 
BRANCH  25  26
ATOM     26  C   LIG    1        0.915   0.472  -1.653  0.00  0.00    +0.019 C 
BRANCH  26  27
ATOM     27  C   LIG    1        0.908   1.667  -0.697  0.00  0.00    +0.104 C 
BRANCH  27  28
ATOM     28  N   LIG    1        2.303   2.104  -0.535  0.00  0.00    -0.315 N 
ATOM     29  C   LIG    1        3.300   1.285   0.004  0.00  0.00    +0.213 C 
ATOM     30  O   LIG    1        3.097   0.104   0.413  0.00  0.00    -0.276 OA
ATOM     31  H   LIG    1        2.560   3.080  -0.840  0.00  0.00    +0.149 HD
BRANCH  29  32
ATOM     32  C   LIG    1        4.679   1.811   0.109  0.00  0.00    +0.105 C 
BRANCH  32  33
ATOM     33  C   LIG    1        5.599   0.735   0.617  0.00  0.00    +0.107 C 
BRANCH  33  34
ATOM     34  C   LIG    1        5.648  -0.449  -0.266  0.00  0.00    +0.238 C 
ATOM     35  N   LIG    1        6.492  -1.571   0.013  0.00  0.00    -0.184 N 
ATOM     36  O   LIG    1        4.918  -0.461  -1.289  0.00  0.00    -0.274 OA
BRANCH  35  37
ATOM     37  O   LIG    1        6.435  -2.624  -0.820  0.00  0.00    -0.292 OA
ATOM     38  H   LIG    1        6.087  -3.422  -0.399  0.00  0.00    +0.242 HD
ENDBRANCH  35  37
BRANCH  35  39
ATOM     39  C   LIG    1        7.396  -1.561   1.173  0.00  0.00    +0.139 C 
BRANCH  39  40
ATOM     40  C   LIG    1        8.693  -0.998   0.649  0.00  0.00    +0.021 C 
BRANCH  40  41
ATOM     41  C   LIG    1        9.774  -0.858   1.663  0.00  0.00    +0.003 C 
BRANCH  41  42
ATOM     42  C   LIG    1       10.204  -2.110   2.340  0.00  0.00    +0.015 C 
BRANCH  42  43
ATOM     43  C   LIG    1       10.719  -3.093   1.293  0.00  0.00    +0.077 C 
BRANCH  43  44
ATOM     44  N   LIG    1       11.144  -4.329   1.962  0.00  0.00    -0.330 NA
ATOM     45  H   LIG    1       11.973  -4.170   2.564  0.00  0.00    +0.118 HD
ATOM     46  H   LIG    1       11.260  -5.103   1.287  0.00  0.00    +0.118 HD
ENDBRANCH  43  44
ENDBRANCH  42  43
ENDBRANCH  41  42
ENDBRANCH  40  41
ENDBRANCH  39  40
ENDBRANCH  35  39
ENDBRANCH  33  34
ENDBRANCH  32  33
ENDBRANCH  29  32
ENDBRANCH  27  28
ENDBRANCH  26  27
ENDBRANCH  25  26
ENDBRANCH  24  25
ENDBRANCH   1  24
TORSDOF 27
