REMARK  Name = molecules/UBVZQGOVTLIHLH-UHFFFAOYSA-N.pdb
REMARK                            x       y       z     vdW  Elec       q    Type
REMARK                         _______ _______ _______ _____ _____    ______ ____
ROOT
ATOM      1  C   LIG    1        0.925  -0.304  -0.646  0.00  0.00    +0.182 A 
ATOM      2  N   LIG    1       -0.136   0.090   0.089  0.00  0.00    -0.207 NA
ATOM      3  C   LIG    1       -1.273  -0.318  -0.494  0.00  0.00    +0.157 A 
ATOM      4  N   LIG    1       -0.923  -0.977  -1.607  0.00  0.00    -0.258 N 
ATOM      5  H   LIG    1       -1.613  -1.405  -2.258  0.00  0.00    +0.191 HD
ATOM      6  N   LIG    1        0.417  -0.966  -1.696  0.00  0.00    -0.152 NA
ENDROOT
BRANCH   1   9
ATOM      7  C   LIG    1        4.129   0.826   0.960  0.00  0.00    +0.141 A 
ATOM      8  C   LIG    1        2.778   0.621   0.730  0.00  0.00    +0.050 A 
ATOM      9  C   LIG    1        2.332  -0.076  -0.383  0.00  0.00    +0.025 A 
ATOM     10  C   LIG    1        3.287  -0.549  -1.239  0.00  0.00    +0.031 A 
ATOM     11  C   LIG    1        4.637  -0.357  -1.030  0.00  0.00    +0.113 A 
ATOM     12  N   LIG    1        5.003   0.328   0.069  0.00  0.00    -0.245 NA
BRANCH   7  13
ATOM     13  C   LIG    1        4.570   1.559   2.133  0.00  0.00    +0.119 C 
ATOM     14  N   LIG    1        4.936   2.135   3.070  0.00  0.00    -0.189 NA
ENDBRANCH   7  13
ENDBRANCH   1   9
BRANCH   3  15
ATOM     15  C   LIG    1       -2.645  -0.084   0.003  0.00  0.00    +0.022 A 
ATOM     16  C   LIG    1       -2.855   0.615   1.172  0.00  0.00    +0.031 A 
ATOM     17  C   LIG    1       -4.147   0.807   1.591  0.00  0.00    +0.111 A 
ATOM     18  N   LIG    1       -5.207   0.343   0.911  0.00  0.00    -0.263 NA
ATOM     19  C   LIG    1       -5.008  -0.331  -0.215  0.00  0.00    +0.111 A 
ATOM     20  C   LIG    1       -3.740  -0.551  -0.679  0.00  0.00    +0.031 A 
ENDBRANCH   3  15
TORSDOF 3
