REMARK  Name = molecules/UBWXUGDQUBIEIZ-QNTYDACNSA-N.pdb
REMARK                            x       y       z     vdW  Elec       q    Type
REMARK                         _______ _______ _______ _____ _____    ______ ____
ROOT
ATOM      1  C   LIG    1       -0.297  -2.023   0.187  0.00  0.00    +0.015 C 
ATOM      2  C   LIG    1       -0.388  -0.621  -0.335  0.00  0.00    +0.008 C 
ATOM      3  C   LIG    1       -0.673   0.401   0.731  0.00  0.00    +0.011 C 
ATOM      4  C   LIG    1       -2.023   0.166   1.361  0.00  0.00    +0.005 C 
ATOM      5  C   LIG    1       -3.066   0.190   0.313  0.00  0.00    -0.000 C 
ATOM      6  C   LIG    1       -4.471   0.036   0.782  0.00  0.00    +0.019 C 
ATOM      7  C   LIG    1       -4.799   0.797   2.022  0.00  0.00    +0.016 C 
ATOM      8  C   LIG    1       -6.300   0.999   2.196  0.00  0.00    +0.079 C 
ATOM      9  C   LIG    1       -6.757   1.706   0.973  0.00  0.00    +0.156 C 
ATOM     10  O   LIG    1       -7.412   2.779   1.005  0.00  0.00    -0.293 OA
ATOM     11  C   LIG    1       -6.405   1.089  -0.306  0.00  0.00    +0.045 C 
ATOM     12  C   LIG    1       -5.345   0.321  -0.370  0.00  0.00    -0.063 C 
ATOM     13  C   LIG    1       -5.007  -0.290  -1.672  0.00  0.00    +0.031 C 
ATOM     14  C   LIG    1       -3.884  -1.284  -1.571  0.00  0.00    +0.008 C 
ATOM     15  C   LIG    1       -2.768  -0.917  -0.680  0.00  0.00    -0.003 C 
ATOM     16  C   LIG    1        0.767  -0.286  -1.211  0.00  0.00    +0.183 C 
ATOM     17  C   LIG    1        0.486  -1.167  -2.435  0.00  0.00    +0.045 C 
ATOM     18  C   LIG    1       -1.036  -1.340  -2.463  0.00  0.00    +0.008 C 
ATOM     19  C   LIG    1       -1.516  -0.478  -1.373  0.00  0.00    +0.002 C 
ENDROOT
BRANCH  16  20
ATOM     20  O   LIG    1        2.016  -0.616  -0.697  0.00  0.00    -0.461 OA
BRANCH  20  21
ATOM     21  C   LIG    1        3.072   0.277  -0.558  0.00  0.00    +0.308 C 
ATOM     22  O   LIG    1        2.870   1.456  -0.926  0.00  0.00    -0.251 OA
BRANCH  21  23
ATOM     23  C   LIG    1        4.393  -0.091  -0.010  0.00  0.00    +0.125 C 
BRANCH  23  24
ATOM     24  C   LIG    1        5.264   1.143  -0.021  0.00  0.00    +0.046 C 
BRANCH  24  25
ATOM     25  C   LIG    1        6.623   0.883   0.513  0.00  0.00    -0.047 A 
ATOM     26  C   LIG    1        6.849   1.048   1.861  0.00  0.00    +0.003 A 
ATOM     27  C   LIG    1        8.100   0.816   2.390  0.00  0.00    +0.000 A 
ATOM     28  C   LIG    1        9.160   0.415   1.604  0.00  0.00    +0.000 A 
ATOM     29  C   LIG    1        8.891   0.262   0.260  0.00  0.00    +0.000 A 
ATOM     30  C   LIG    1        7.647   0.489  -0.289  0.00  0.00    +0.003 A 
ENDBRANCH  24  25
ENDBRANCH  23  24
ENDBRANCH  21  23
ENDBRANCH  20  21
ENDBRANCH  16  20
TORSDOF 5
