REMARK  Name = molecules/UCCJWNPWWPJKGL-DEOSSOPVSA-N.pdb
REMARK                            x       y       z     vdW  Elec       q    Type
REMARK                         _______ _______ _______ _____ _____    ______ ____
ROOT
ATOM      1  C   LIG    1       -3.775   1.231   0.023  0.00  0.00    +0.263 C 
ATOM      2  O   LIG    1       -4.929   0.939   0.539  0.00  0.00    -0.267 OA
ATOM      3  N   LIG    1       -2.916   0.153  -0.277  0.00  0.00    -0.280 N 
ATOM      4  C   LIG    1       -3.198  -1.147   0.042  0.00  0.00    +0.057 A 
ATOM      5  C   LIG    1       -4.238  -1.783   0.699  0.00  0.00    +0.030 A 
ATOM      6  C   LIG    1       -4.267  -3.170   0.889  0.00  0.00    +0.048 A 
ATOM      7  C   LIG    1       -3.248  -3.953   0.421  0.00  0.00    +0.121 A 
ATOM      8  C   LIG    1       -2.207  -3.334  -0.234  0.00  0.00    +0.056 A 
ATOM      9  C   LIG    1       -2.185  -1.954  -0.419  0.00  0.00    +0.008 A 
ATOM     10  C   LIG    1       -1.296  -1.102  -1.019  0.00  0.00    -0.008 A 
ATOM     11  C   LIG    1       -1.755   0.224  -0.930  0.00  0.00    +0.028 A 
ATOM     12  C   LIG    1       -1.025   1.396  -1.516  0.00  0.00    +0.064 C 
ENDROOT
BRANCH   1  13
ATOM     13  C   LIG    1       -3.542   2.632  -0.168  0.00  0.00    +0.040 A 
ATOM     14  C   LIG    1       -2.458   3.249   0.399  0.00  0.00    +0.015 A 
ATOM     15  C   LIG    1       -2.286   4.622   0.251  0.00  0.00    +0.021 A 
ATOM     16  C   LIG    1       -3.208   5.365  -0.468  0.00  0.00    +0.041 A 
ATOM     17 CL   LIG    1       -3.019   7.094  -0.672  0.00  0.00    -0.084 Cl
ATOM     18  C   LIG    1       -4.313   4.754  -1.048  0.00  0.00    +0.021 A 
ATOM     19  C   LIG    1       -4.454   3.380  -0.881  0.00  0.00    +0.015 A 
ENDBRANCH   1  13
BRANCH   7  20
ATOM     20  O   LIG    1       -3.209  -5.329   0.572  0.00  0.00    -0.495 OA
ATOM     21  C   LIG    1       -4.305  -5.945   1.258  0.00  0.00    +0.277 C 
ENDBRANCH   7  20
BRANCH  10  22
ATOM     22  C   LIG    1       -0.036  -1.508  -1.668  0.00  0.00    +0.158 C 
BRANCH  22  23
ATOM     23  C   LIG    1        1.150  -1.194  -0.829  0.00  0.00    +0.312 C 
ATOM     24  O   LIG    1        0.958  -0.646   0.277  0.00  0.00    -0.250 OA
BRANCH  23  25
ATOM     25  O   LIG    1        2.440  -1.481  -1.219  0.00  0.00    -0.463 OA
BRANCH  25  26
ATOM     26  C   LIG    1        3.519  -1.162  -0.390  0.00  0.00    +0.251 C 
BRANCH  26  27
ATOM     27  C   LIG    1        3.658   0.300  -0.081  0.00  0.00    +0.165 C 
BRANCH  27  28
ATOM     28  C   LIG    1        4.872   0.448   0.792  0.00  0.00    -0.030 A 
ATOM     29  C   LIG    1        4.784   1.080   2.016  0.00  0.00    +0.004 A 
ATOM     30  C   LIG    1        5.851   1.251   2.866  0.00  0.00    +0.000 A 
ATOM     31  C   LIG    1        7.088   0.758   2.466  0.00  0.00    +0.000 A 
ATOM     32  C   LIG    1        7.187   0.125   1.246  0.00  0.00    +0.000 A 
ATOM     33  C   LIG    1        6.103  -0.043   0.394  0.00  0.00    +0.004 A 
ENDBRANCH  27  28
BRANCH  27  34
ATOM     34  C   LIG    1        3.845   1.037  -1.359  0.00  0.00    +0.316 C 
ATOM     35  O   LIG    1        3.062   1.965  -1.685  0.00  0.00    -0.250 OA
BRANCH  34  36
ATOM     36  O   LIG    1        4.870   0.754  -2.254  0.00  0.00    -0.480 OA
ATOM     37  H   LIG    1        5.043  -0.174  -2.631  0.00  0.00    +0.295 HD
ENDBRANCH  34  36
ENDBRANCH  27  34
ENDBRANCH  26  27
ENDBRANCH  25  26
ENDBRANCH  23  25
ENDBRANCH  22  23
ENDBRANCH  10  22
TORSDOF 10
