REMARK  Name = molecules/UCEWGESNIULAGX-UHFFFAOYSA-N.pdb
REMARK                            x       y       z     vdW  Elec       q    Type
REMARK                         _______ _______ _______ _____ _____    ______ ____
ROOT
ATOM      1  C   LIG    1       -1.279   0.487  -0.014  0.00  0.00    +0.098 C 
ATOM      2  C   LIG    1       -2.093   0.574   1.234  0.00  0.00    -0.020 A 
ATOM      3  C   LIG    1       -1.880   1.315   2.412  0.00  0.00    +0.005 A 
ATOM      4  C   LIG    1       -2.766   1.229   3.461  0.00  0.00    +0.000 A 
ATOM      5  C   LIG    1       -3.856   0.403   3.320  0.00  0.00    +0.001 A 
ATOM      6  C   LIG    1       -4.080  -0.334   2.167  0.00  0.00    +0.009 A 
ATOM      7  C   LIG    1       -3.167  -0.235   1.107  0.00  0.00    -0.013 A 
ATOM      8  C   LIG    1       -3.141  -0.852  -0.203  0.00  0.00    -0.013 A 
ATOM      9  C   LIG    1       -4.018  -1.741  -0.836  0.00  0.00    +0.009 A 
ATOM     10  C   LIG    1       -3.793  -2.177  -2.119  0.00  0.00    +0.001 A 
ATOM     11  C   LIG    1       -2.677  -1.731  -2.808  0.00  0.00    +0.000 A 
ATOM     12  C   LIG    1       -1.806  -0.863  -2.207  0.00  0.00    +0.005 A 
ATOM     13  C   LIG    1       -2.035  -0.415  -0.888  0.00  0.00    -0.020 A 
ENDROOT
BRANCH   1  14
ATOM     14  C   LIG    1       -1.104   1.842  -0.606  0.00  0.00    +0.225 C 
ATOM     15  N   LIG    1       -0.496   2.880   0.130  0.00  0.00    -0.328 N 
ATOM     16  H   LIG    1        0.350   2.782   0.732  0.00  0.00    +0.145 HD
ATOM     17  H   LIG    1       -0.896   3.867   0.110  0.00  0.00    +0.145 HD
ATOM     18  O   LIG    1       -1.492   2.098  -1.777  0.00  0.00    -0.275 OA
ENDBRANCH   1  14
BRANCH   1  19
ATOM     19  C   LIG    1        0.026  -0.111   0.416  0.00  0.00    +0.027 C 
BRANCH  19  20
ATOM     20  C   LIG    1        1.069  -0.292  -0.624  0.00  0.00    +0.017 C 
BRANCH  20  21
ATOM     21  C   LIG    1        2.270  -0.904   0.112  0.00  0.00    +0.081 C 
BRANCH  21  22
ATOM     22  N   LIG    1        3.390  -1.141  -0.737  0.00  0.00    -0.314 NA
ATOM     23  H   LIG    1        4.103  -1.648  -0.171  0.00  0.00    +0.122 HD
BRANCH  22  24
ATOM     24  C   LIG    1        4.025   0.075  -1.201  0.00  0.00    +0.047 C 
ATOM     25  C   LIG    1        4.747   0.773  -0.038  0.00  0.00    +0.023 C 
ATOM     26  C   LIG    1        5.153  -0.363  -2.138  0.00  0.00    +0.023 C 
ENDBRANCH  22  24
ENDBRANCH  21  22
ENDBRANCH  20  21
ENDBRANCH  19  20
ENDBRANCH   1  19
TORSDOF 6
