REMARK  Name = molecules/UCFGDBYHRUNTLO-QHCPKHFHSA-N.pdb
REMARK                            x       y       z     vdW  Elec       q    Type
REMARK                         _______ _______ _______ _____ _____    ______ ____
ROOT
ATOM      1  C   LIG    1        5.216  -0.228   1.024  0.00  0.00    +0.188 C 
ATOM      2  C   LIG    1        6.353   0.682   1.186  0.00  0.00    +0.344 C 
ATOM      3  O   LIG    1        7.404   0.211   1.722  0.00  0.00    -0.247 OA
ATOM      4  O   LIG    1        6.259   1.981   0.767  0.00  0.00    -0.457 OA
ATOM      5  C   LIG    1        5.331   2.383  -0.218  0.00  0.00    +0.273 C 
ATOM      6  C   LIG    1        4.041   1.661  -0.037  0.00  0.00    +0.061 A 
ATOM      7  C   LIG    1        2.875   2.231  -0.462  0.00  0.00    +0.259 A 
ATOM      8  N   LIG    1        1.670   1.597  -0.312  0.00  0.00    -0.302 N 
ATOM      9  C   LIG    1        1.584   0.394   0.256  0.00  0.00    +0.071 A 
ATOM     10  C   LIG    1        2.760  -0.215   0.701  0.00  0.00    +0.035 A 
ATOM     11  C   LIG    1        0.203  -0.102   0.316  0.00  0.00    +0.093 A 
ATOM     12  N   LIG    1       -0.347  -1.240   0.793  0.00  0.00    -0.245 NA
ATOM     13  C   LIG    1       -1.670  -1.445   0.720  0.00  0.00    +0.072 A 
ATOM     14  C   LIG    1       -2.231  -2.630   1.221  0.00  0.00    +0.032 A 
ATOM     15  C   LIG    1       -3.588  -2.814   1.136  0.00  0.00    +0.048 A 
ATOM     16  C   LIG    1       -4.406  -1.859   0.571  0.00  0.00    +0.122 A 
ATOM     17  C   LIG    1       -3.850  -0.706   0.084  0.00  0.00    +0.017 A 
ATOM     18  C   LIG    1       -2.464  -0.486   0.156  0.00  0.00    +0.009 A 
ATOM     19  C   LIG    1       -1.924   0.707  -0.349  0.00  0.00    +0.018 A 
ATOM     20  C   LIG    1       -0.560   0.887  -0.259  0.00  0.00    +0.000 A 
ATOM     21  C   LIG    1        0.324   1.994  -0.677  0.00  0.00    +0.162 C 
ATOM     22  O   LIG    1        2.881   3.365  -1.007  0.00  0.00    -0.267 OA
ATOM     23  C   LIG    1        3.979   0.419   0.554  0.00  0.00    +0.008 A 
ENDROOT
BRANCH   1  24
ATOM     24  C   LIG    1        5.535  -1.438   0.163  0.00  0.00    +0.048 C 
ATOM     25  C   LIG    1        5.870  -1.031  -1.255  0.00  0.00    +0.007 C 
ENDBRANCH   1  24
BRANCH   1  26
ATOM     26  O   LIG    1        4.926  -0.748   2.308  0.00  0.00    -0.373 OA
ATOM     27  H   LIG    1        4.638  -1.678   2.263  0.00  0.00    +0.211 HD
ENDBRANCH   1  26
BRANCH  16  28
ATOM     28  O   LIG    1       -5.768  -2.116   0.526  0.00  0.00    -0.506 OA
ATOM     29  H   LIG    1       -6.206  -2.932   0.868  0.00  0.00    +0.292 HD
ENDBRANCH  16  28
BRANCH  17  30
ATOM     30  C   LIG    1       -4.632   0.378  -0.512  0.00  0.00    +0.123 C 
BRANCH  30  31
ATOM     31  N   LIG    1       -6.013   0.244  -0.687  0.00  0.00    -0.304 NA
ATOM     32  C   LIG    1       -6.795   1.431  -0.518  0.00  0.00    +0.104 C 
ATOM     33  C   LIG    1       -6.505  -0.661  -1.664  0.00  0.00    +0.104 C 
ENDBRANCH  30  31
ENDBRANCH  17  30
TORSDOF 5
