REMARK  Name = molecules/UCSJYZPVAKXKNQ-HZYVHMACSA-N.pdb
REMARK                            x       y       z     vdW  Elec       q    Type
REMARK                         _______ _______ _______ _____ _____    ______ ____
ROOT
ATOM      1  O   LIG    1       -1.313  -1.079  -1.103  0.00  0.00    -0.339 OA
ENDROOT
BRANCH   1   3
ATOM      2  C   LIG    1        1.016  -1.270  -0.854  0.00  0.00    +0.218 C 
ATOM      3  C   LIG    1       -0.126  -0.570  -1.543  0.00  0.00    +0.283 C 
ATOM      4  O   LIG    1       -0.017  -1.004  -2.903  0.00  0.00    -0.342 OA
ATOM      5  C   LIG    1        0.064  -2.385  -2.689  0.00  0.00    +0.160 C 
ATOM      6  C   LIG    1        0.372  -3.146  -3.944  0.00  0.00    +0.041 C 
ATOM      7  C   LIG    1        1.233  -2.477  -1.745  0.00  0.00    +0.177 C 
BRANCH   7   8
ATOM      8  O   LIG    1        2.384  -2.349  -2.505  0.00  0.00    -0.376 OA
ATOM      9  H   LIG    1        2.195  -1.715  -3.247  0.00  0.00    +0.211 HD
ENDBRANCH   7   8
BRANCH   7  10
ATOM     10  C   LIG    1        1.202  -3.744  -0.981  0.00  0.00    +0.263 C 
ATOM     11  O   LIG    1        0.287  -4.050  -0.259  0.00  0.00    -0.298 OA
ENDBRANCH   7  10
BRANCH   2  12
ATOM     12  O   LIG    1        2.157  -0.472  -0.798  0.00  0.00    -0.338 OA
BRANCH  12  18
ATOM     13  C   LIG    1        4.025  -1.066   0.456  0.00  0.00    +0.141 C 
ATOM     14  C   LIG    1        4.498  -1.256   1.888  0.00  0.00    +0.167 C 
ATOM     15  C   LIG    1        4.138  -0.036   2.667  0.00  0.00    +0.176 C 
ATOM     16  C   LIG    1        3.776   1.146   1.831  0.00  0.00    +0.178 C 
ATOM     17  O   LIG    1        2.775   0.933   0.921  0.00  0.00    -0.341 OA
ATOM     18  C   LIG    1        2.659  -0.366   0.471  0.00  0.00    +0.271 C 
BRANCH  13  20
ATOM     19  C   LIG    1        4.797  -0.067  -1.610  0.00  0.00    +0.101 C 
ATOM     20  N   LIG    1        5.033  -0.318  -0.223  0.00  0.00    -0.310 NA
ATOM     21  H   LIG    1        5.943  -0.756  -0.039  0.00  0.00    +0.122 HD
ENDBRANCH  13  20
BRANCH  14  22
ATOM     22  O   LIG    1        3.973  -2.424   2.455  0.00  0.00    -0.387 OA
ATOM     23  H   LIG    1        4.581  -2.758   3.159  0.00  0.00    +0.210 HD
ENDBRANCH  14  22
BRANCH  15  24
ATOM     24  O   LIG    1        5.249   0.332   3.446  0.00  0.00    -0.387 OA
ATOM     25  H   LIG    1        5.821   0.965   2.910  0.00  0.00    +0.210 HD
ENDBRANCH  15  24
BRANCH  16  26
ATOM     26  C   LIG    1        3.461   2.307   2.773  0.00  0.00    +0.190 C 
BRANCH  26  27
ATOM     27  O   LIG    1        3.291   3.489   2.034  0.00  0.00    -0.392 OA
ATOM     28  H   LIG    1        3.304   4.218   2.715  0.00  0.00    +0.210 HD
ENDBRANCH  26  27
ENDBRANCH  16  26
ENDBRANCH  12  18
ENDBRANCH   2  12
ENDBRANCH   1   3
BRANCH   1  29
ATOM     29  C   LIG    1       -2.276  -0.177  -0.723  0.00  0.00    +0.192 C 
ATOM     30  C   LIG    1       -2.819  -0.337   0.653  0.00  0.00    +0.208 C 
ATOM     31  C   LIG    1       -3.555   0.959   0.997  0.00  0.00    +0.193 C 
ATOM     32  C   LIG    1       -4.622   1.281   0.021  0.00  0.00    +0.208 C 
ATOM     33  C   LIG    1       -4.267   1.047  -1.413  0.00  0.00    +0.185 C 
ATOM     34  C   LIG    1       -3.488  -0.212  -1.646  0.00  0.00    +0.179 C 
BRANCH  34  35
ATOM     35  O   LIG    1       -3.148  -0.331  -2.970  0.00  0.00    -0.386 OA
ATOM     36  H   LIG    1       -3.405   0.488  -3.447  0.00  0.00    +0.210 HD
ENDBRANCH  34  35
BRANCH  33  37
ATOM     37  O   LIG    1       -5.493   0.885  -2.103  0.00  0.00    -0.386 OA
ATOM     38  H   LIG    1       -5.308   1.105  -3.050  0.00  0.00    +0.210 HD
ENDBRANCH  33  37
BRANCH  32  39
ATOM     39  N   LIG    1       -4.924   2.714   0.152  0.00  0.00    -0.268 N 
ATOM     40  H   LIG    1       -4.382   3.340   0.794  0.00  0.00    +0.258 HD
BRANCH  39  41
ATOM     41  C   LIG    1       -5.968   3.335  -0.585  0.00  0.00    +0.377 C 
ATOM     42  N   LIG    1       -7.278   2.806  -0.450  0.00  0.00    -0.289 N 
ATOM     43  H   LIG    1       -7.401   1.792  -0.340  0.00  0.00    +0.255 HD
ATOM     44  H   LIG    1       -8.127   3.444  -0.461  0.00  0.00    +0.255 HD
BRANCH  41  45
ATOM     45  N   LIG    1       -5.811   4.346  -1.369  0.00  0.00    -0.130 NA
ATOM     46  H   LIG    1       -4.893   4.812  -1.541  0.00  0.00    +0.306 HD
ENDBRANCH  41  45
ENDBRANCH  39  41
ENDBRANCH  32  39
BRANCH  31  47
ATOM     47  O   LIG    1       -4.151   0.844   2.269  0.00  0.00    -0.385 OA
ATOM     48  H   LIG    1       -3.670   1.339   2.958  0.00  0.00    +0.210 HD
ENDBRANCH  31  47
BRANCH  30  49
ATOM     49  N   LIG    1       -1.882  -0.695   1.665  0.00  0.00    -0.268 N 
ATOM     50  H   LIG    1       -1.974  -1.584   2.200  0.00  0.00    +0.258 HD
BRANCH  49  51
ATOM     51  C   LIG    1       -0.784   0.153   1.983  0.00  0.00    +0.377 C 
ATOM     52  N   LIG    1        0.086  -0.158   3.059  0.00  0.00    -0.289 N 
ATOM     53  H   LIG    1       -0.239  -0.872   3.756  0.00  0.00    +0.255 HD
ATOM     54  H   LIG    1        1.018   0.294   3.174  0.00  0.00    +0.255 HD
BRANCH  51  55
ATOM     55  N   LIG    1       -0.551   1.222   1.307  0.00  0.00    -0.130 NA
ATOM     56  H   LIG    1        0.257   1.816   1.565  0.00  0.00    +0.306 HD
ENDBRANCH  51  55
ENDBRANCH  49  51
ENDBRANCH  30  49
ENDBRANCH   1  29
TORSDOF 20
