REMARK  Name = molecules/UCTWMZQNUQWSLP-VIFPVBQESA-N.pdb
REMARK                            x       y       z     vdW  Elec       q    Type
REMARK                         _______ _______ _______ _____ _____    ______ ____
ROOT
ATOM      1  C   LIG    1        0.480   0.271  -0.118  0.00  0.00    -0.014 A 
ATOM      2  C   LIG    1        0.985  -0.891   0.417  0.00  0.00    +0.010 A 
ATOM      3  C   LIG    1        2.342  -1.130   0.589  0.00  0.00    +0.049 A 
ATOM      4  C   LIG    1        3.237  -0.155   0.206  0.00  0.00    +0.158 A 
ATOM      5  C   LIG    1        2.740   1.006  -0.327  0.00  0.00    +0.159 A 
ATOM      6  C   LIG    1        1.396   1.238  -0.496  0.00  0.00    +0.055 A 
ENDROOT
BRANCH   4   7
ATOM      7  O   LIG    1        4.613  -0.370   0.369  0.00  0.00    -0.503 OA
ATOM      8  H   LIG    1        4.948  -1.238   0.764  0.00  0.00    +0.292 HD
ENDBRANCH   4   7
BRANCH   5   9
ATOM      9  O   LIG    1        3.656   1.983  -0.708  0.00  0.00    -0.503 OA
ATOM     10  H   LIG    1        3.346   2.847  -1.102  0.00  0.00    +0.292 HD
ENDBRANCH   5   9
BRANCH   1  11
ATOM     11  C   LIG    1       -0.992   0.508  -0.301  0.00  0.00    +0.158 C 
BRANCH  11  12
ATOM     12  O   LIG    1       -1.159   0.995  -1.617  0.00  0.00    -0.386 OA
ATOM     13  H   LIG    1       -0.855   0.294  -2.224  0.00  0.00    +0.210 HD
ENDBRANCH  11  12
BRANCH  11  14
ATOM     14  C   LIG    1       -1.699  -0.791  -0.153  0.00  0.00    +0.116 C 
BRANCH  14  15
ATOM     15  N   LIG    1       -3.122  -0.697  -0.428  0.00  0.00    -0.316 NA
ATOM     16  C   LIG    1       -3.850   0.064   0.539  0.00  0.00    +0.101 C 
ATOM     17  H   LIG    1       -3.478  -1.665  -0.506  0.00  0.00    +0.122 HD
ENDBRANCH  14  15
ENDBRANCH  11  14
ENDBRANCH   1  11
TORSDOF 6
