REMARK  Name = molecules/UDKICLZCJWQTLS-UHFFFAOYSA-N.pdb
REMARK                            x       y       z     vdW  Elec       q    Type
REMARK                         _______ _______ _______ _____ _____    ______ ____
ROOT
ATOM      1  C   LIG    1        1.991  -1.017   0.055  0.00  0.00    +0.050 A 
ATOM      2  C   LIG    1        2.426  -2.197   0.597  0.00  0.00    -0.028 A 
ATOM      3  C   LIG    1        3.632  -2.301   1.285  0.00  0.00    +0.005 A 
ATOM      4  C   LIG    1        4.384  -1.155   1.403  0.00  0.00    +0.001 A 
ATOM      5  C   LIG    1        3.946   0.029   0.859  0.00  0.00    +0.017 A 
ATOM      6  C   LIG    1        1.607  -3.425   0.460  0.00  0.00    +0.046 C 
ATOM      7  C   LIG    1        2.749   0.111   0.181  0.00  0.00    +0.080 A 
ENDROOT
BRANCH   1   8
ATOM      8  N   LIG    1        0.770  -0.973  -0.618  0.00  0.00    -0.284 N 
ATOM      9  C   LIG    1       -0.476  -0.683   0.053  0.00  0.00    +0.231 C 
ATOM     10  O   LIG    1       -0.401  -0.468   1.280  0.00  0.00    -0.274 OA
ATOM     11  H   LIG    1        0.775  -1.160  -1.651  0.00  0.00    +0.155 HD
BRANCH   9  12
ATOM     12  C   LIG    1       -1.708  -0.667  -0.749  0.00  0.00    +0.180 C 
BRANCH  12  13
ATOM     13  N   LIG    1       -2.911  -0.394  -0.113  0.00  0.00    -0.295 NA
BRANCH  13  14
ATOM     14  C   LIG    1       -3.004   0.161   1.155  0.00  0.00    +0.081 C 
ATOM     15  C   LIG    1       -2.544   1.579   1.308  0.00  0.00    +0.020 C 
ENDBRANCH  13  14
BRANCH  13  16
ATOM     16  C   LIG    1       -4.092  -0.393  -0.915  0.00  0.00    +0.081 C 
ATOM     17  C   LIG    1       -4.191   0.720  -1.905  0.00  0.00    +0.020 C 
ENDBRANCH  13  16
ENDBRANCH  12  13
ENDBRANCH   9  12
ENDBRANCH   1   8
BRANCH   7  18
ATOM     18  C   LIG    1        2.350   1.404  -0.374  0.00  0.00    +0.341 C 
ATOM     19  O   LIG    1        1.287   1.571  -1.004  0.00  0.00    -0.245 OA
BRANCH  18  20
ATOM     20  O   LIG    1        3.166   2.513  -0.211  0.00  0.00    -0.464 OA
ATOM     21  C   LIG    1        2.874   3.806  -0.709  0.00  0.00    +0.280 C 
ENDBRANCH  18  20
ENDBRANCH   7  18
TORSDOF 7
