REMARK  Name = molecules/UEEJHVSXFDXPFK-UHFFFAOYSA-N.pdb
REMARK                            x       y       z     vdW  Elec       q    Type
REMARK                         _______ _______ _______ _____ _____    ______ ____
ROOT
ATOM      1  C   LIG    1        0.220  -0.843  -0.410  0.00  0.00    +0.111 C 
ENDROOT
BRANCH   1   3
ATOM      2  C   LIG    1       -0.549   1.276   0.217  0.00  0.00    +0.104 C 
ATOM      3  N   LIG    1       -0.410  -0.096   0.639  0.00  0.00    -0.306 NA
ATOM      4  C   LIG    1       -1.764  -0.585   0.905  0.00  0.00    +0.104 C 
ENDBRANCH   1   3
BRANCH   1   5
ATOM      5  C   LIG    1        1.636  -0.408  -0.573  0.00  0.00    +0.171 C 
BRANCH   5   6
ATOM      6  O   LIG    1        1.794   0.924  -0.894  0.00  0.00    -0.394 OA
ATOM      7  H   LIG    1        2.719   1.200  -0.662  0.00  0.00    +0.209 HD
ENDBRANCH   5   6
ENDBRANCH   1   5
TORSDOF 3
