REMARK  Name = molecules/UEJJHQNACJXSKW-SECBINFHSA-N.pdb
REMARK                            x       y       z     vdW  Elec       q    Type
REMARK                         _______ _______ _______ _____ _____    ______ ____
ROOT
ATOM      1  O   LIG    1        0.315   2.166  -0.164  0.00  0.00    -0.270 OA
ATOM      2  C   LIG    1        0.752   0.982  -0.107  0.00  0.00    +0.254 C 
ATOM      3  N   LIG    1       -0.015  -0.165   0.126  0.00  0.00    -0.222 N 
ATOM      4  C   LIG    1        0.896  -1.267   0.104  0.00  0.00    +0.254 C 
ATOM      5  O   LIG    1        0.620  -2.483   0.270  0.00  0.00    -0.270 OA
ATOM      6  C   LIG    1        2.239  -0.724  -0.152  0.00  0.00    +0.049 A 
ATOM      7  C   LIG    1        3.463  -1.359  -0.269  0.00  0.00    +0.014 A 
ATOM      8  C   LIG    1        4.612  -0.632  -0.515  0.00  0.00    +0.001 A 
ATOM      9  C   LIG    1        4.547   0.741  -0.647  0.00  0.00    +0.001 A 
ATOM     10  C   LIG    1        3.319   1.359  -0.528  0.00  0.00    +0.014 A 
ATOM     11  C   LIG    1        2.165   0.638  -0.282  0.00  0.00    +0.049 A 
ENDROOT
BRANCH   3  12
ATOM     12  C   LIG    1       -1.425  -0.273   0.347  0.00  0.00    +0.171 C 
ATOM     13  C   LIG    1       -1.893   0.483   1.537  0.00  0.00    +0.240 C 
ATOM     14  O   LIG    1       -1.159   1.075   2.338  0.00  0.00    -0.273 OA
ATOM     15  N   LIG    1       -3.306   0.507   1.738  0.00  0.00    -0.255 N 
ATOM     16  H   LIG    1       -3.782   0.968   2.518  0.00  0.00    +0.158 HD
ATOM     17  C   LIG    1       -4.103  -0.178   0.755  0.00  0.00    +0.219 C 
ATOM     18  O   LIG    1       -5.200  -0.714   1.060  0.00  0.00    -0.275 OA
ATOM     19  C   LIG    1       -3.664  -0.281  -0.650  0.00  0.00    +0.098 C 
ATOM     20  C   LIG    1       -2.247   0.231  -0.834  0.00  0.00    +0.041 C 
ENDBRANCH   3  12
TORSDOF 1
