REMARK  Name = molecules/UEMLYRZWLVXWRU-UHFFFAOYSA-N.pdb
REMARK                            x       y       z     vdW  Elec       q    Type
REMARK                         _______ _______ _______ _____ _____    ______ ____
ROOT
ATOM      1  S   LIG    1        1.448  -0.506  -1.449  0.00  0.00    +0.074 S 
ATOM      2  O   LIG    1        1.880   0.812  -2.071  0.00  0.00    -0.150 OA
ATOM      3  O   LIG    1        1.146  -1.407  -2.637  0.00  0.00    -0.150 OA
ENDROOT
BRANCH   1   4
ATOM      4  C   LIG    1       -0.077  -0.210  -0.658  0.00  0.00    +0.109 A 
ATOM      5  C   LIG    1       -0.340   1.028  -0.163  0.00  0.00    +0.030 A 
ATOM      6  C   LIG    1       -1.540   1.336   0.474  0.00  0.00    +0.024 A 
ATOM      7  C   LIG    1       -2.470   0.325   0.586  0.00  0.00    +0.025 A 
ATOM      8  C   LIG    1       -2.232  -0.944   0.093  0.00  0.00    +0.024 A 
ATOM      9  C   LIG    1       -1.036  -1.218  -0.531  0.00  0.00    +0.030 A 
BRANCH   7  10
ATOM     10  N   LIG    1       -3.704   0.591   1.226  0.00  0.00    -0.358 N 
ATOM     11  H   LIG    1       -3.735   0.903   2.215  0.00  0.00    +0.142 HD
ATOM     12  H   LIG    1       -4.614   0.485   0.733  0.00  0.00    +0.142 HD
ENDBRANCH   7  10
ENDBRANCH   1   4
BRANCH   1  13
ATOM     13  N   LIG    1        2.646  -1.169  -0.449  0.00  0.00    -0.197 N 
ATOM     14  H   LIG    1        3.046  -2.103  -0.663  0.00  0.00    +0.176 HD
BRANCH  13  15
ATOM     15  C   LIG    1        3.116  -0.474   0.679  0.00  0.00    +0.147 C 
ATOM     16  S   LIG    1        4.266  -1.058   1.681  0.00  0.00    -0.018 S 
BRANCH  15  17
ATOM     17  N   LIG    1        2.591   0.806   0.999  0.00  0.00    -0.339 N 
ATOM     18  H   LIG    1        2.089   0.895   1.913  0.00  0.00    +0.144 HD
ATOM     19  H   LIG    1        2.684   1.632   0.377  0.00  0.00    +0.144 HD
ENDBRANCH  15  17
ENDBRANCH  13  15
ENDBRANCH   1  13
TORSDOF 5
