REMARK  Name = molecules/UFLRJROFPAGRPN-UHFFFAOYSA-N.pdb
REMARK                            x       y       z     vdW  Elec       q    Type
REMARK                         _______ _______ _______ _____ _____    ______ ____
ROOT
ATOM      1  C   LIG    1       -0.453   2.304   0.659  0.00  0.00    +0.033 A 
ATOM      2  C   LIG    1        0.531   1.629   1.337  0.00  0.00    +0.025 A 
ATOM      3  C   LIG    1        1.684   1.293   0.694  0.00  0.00    +0.025 A 
ATOM      4  C   LIG    1        1.875   1.618  -0.619  0.00  0.00    +0.031 A 
ATOM      5  C   LIG    1        0.885   2.296  -1.294  0.00  0.00    +0.025 A 
ATOM      6  C   LIG    1       -0.282   2.646  -0.676  0.00  0.00    +0.025 A 
ENDROOT
BRANCH   1   7
ATOM      7  N   LIG    1       -1.617   2.700   1.330  0.00  0.00    -0.297 N 
ATOM      8  H   LIG    1       -1.467   3.481   2.054  0.00  0.00    +0.154 HD
BRANCH   7   9
ATOM      9  C   LIG    1       -2.881   2.193   1.145  0.00  0.00    +0.137 C 
ATOM     10  S   LIG    1       -4.097   2.882   2.061  0.00  0.00    -0.018 S 
BRANCH   9  11
ATOM     11  N   LIG    1       -3.256   1.171   0.279  0.00  0.00    -0.310 N 
ATOM     12  C   LIG    1       -4.681   0.778   0.215  0.00  0.00    +0.122 C 
ATOM     13  C   LIG    1       -4.793  -0.570   0.888  0.00  0.00    +0.103 C 
ATOM     14  N   LIG    1       -3.753  -1.428   0.354  0.00  0.00    -0.302 NA
ATOM     15  C   LIG    1       -4.150  -2.792   0.209  0.00  0.00    +0.105 C 
ATOM     16  C   LIG    1       -3.192  -0.899  -0.866  0.00  0.00    +0.103 C 
ATOM     17  C   LIG    1       -2.402   0.387  -0.583  0.00  0.00    +0.122 C 
ENDBRANCH   9  11
ENDBRANCH   7   9
ENDBRANCH   1   7
BRANCH   4  18
ATOM     18  N   LIG    1        3.061   1.239  -1.276  0.00  0.00    -0.314 N 
ATOM     19  H   LIG    1        3.357   1.858  -2.086  0.00  0.00    +0.152 HD
BRANCH  18  20
ATOM     20  C   LIG    1        3.831   0.112  -0.906  0.00  0.00    +0.031 A 
ATOM     21  C   LIG    1        3.331  -1.007  -0.290  0.00  0.00    +0.025 A 
ATOM     22  C   LIG    1        4.140  -2.099   0.021  0.00  0.00    +0.034 A 
ATOM     23  C   LIG    1        5.483  -2.108  -0.276  0.00  0.00    +0.126 A 
ATOM     24  C   LIG    1        5.974  -0.981  -0.894  0.00  0.00    +0.034 A 
ATOM     25  C   LIG    1        5.200   0.103  -1.208  0.00  0.00    +0.025 A 
BRANCH  23  26
ATOM     26  N   LIG    1        6.290  -3.224   0.047  0.00  0.00    +0.056 N 
ATOM     27  O   LIG    1        5.775  -4.210   0.607  0.00  0.00    -0.126 OA
ATOM     28  O   LIG    1        7.633  -3.279  -0.229  0.00  0.00    -0.126 OA
ENDBRANCH  23  26
ENDBRANCH  18  20
ENDBRANCH   4  18
TORSDOF 6
