REMARK  Name = molecules/UFSKUSARDNFIRC-UHFFFAOYSA-N.pdb
REMARK                            x       y       z     vdW  Elec       q    Type
REMARK                         _______ _______ _______ _____ _____    ______ ____
ROOT
ATOM      1  C   LIG    1        1.753   0.122   0.028  0.00  0.00    +0.229 C 
ATOM      2  N   LIG    1        0.783   0.869   0.714  0.00  0.00    -0.270 N 
ATOM      3  H   LIG    1        0.151   1.311   1.149  0.00  0.00    +0.156 HD
ATOM      4  O   LIG    1        1.857  -1.044  -0.301  0.00  0.00    -0.274 OA
ENDROOT
BRANCH   2   5
ATOM      5  C   LIG    1       -0.547  -0.159   0.379  0.00  0.00    +0.126 A 
ATOM      6  N   LIG    1       -1.685   0.608   0.244  0.00  0.00    -0.232 NA
ATOM      7  C   LIG    1       -2.795  -0.074  -0.180  0.00  0.00    +0.076 A 
ATOM      8  C   LIG    1       -2.686  -1.446  -0.424  0.00  0.00    -0.024 A 
ATOM      9  C   LIG    1       -1.539  -2.169  -0.278  0.00  0.00    +0.009 A 
ATOM     10  C   LIG    1       -3.909  -2.141  -0.898  0.00  0.00    +0.046 C 
ATOM     11  C   LIG    1       -0.400  -1.387   0.164  0.00  0.00    +0.044 A 
BRANCH   7  12
ATOM     12  C   LIG    1       -4.090   0.486  -0.478  0.00  0.00    +0.001 A 
ATOM     13  C   LIG    1       -5.191   0.195   0.344  0.00  0.00    +0.025 A 
ATOM     14  C   LIG    1       -6.428   0.600  -0.019  0.00  0.00    +0.059 A 
ATOM     15  C   LIG    1       -6.570   1.301  -1.213  0.00  0.00    +0.015 A 
ATOM     16  C   LIG    1       -5.531   1.622  -2.046  0.00  0.00    +0.001 A 
ATOM     17  C   LIG    1       -4.274   1.196  -1.650  0.00  0.00    +0.010 A 
BRANCH  14  18
ATOM     18  C   LIG    1       -7.564   0.380   0.802  0.00  0.00    +0.337 C 
ATOM     19  O   LIG    1       -8.736   0.477   0.542  0.00  0.00    -0.245 OA
BRANCH  18  20
ATOM     20  O   LIG    1       -7.306  -0.028   2.189  0.00  0.00    -0.477 OA
ATOM     21  H   LIG    1       -7.094  -1.036   2.326  0.00  0.00    +0.295 HD
ENDBRANCH  18  20
ENDBRANCH  14  18
ENDBRANCH   7  12
ENDBRANCH   2   5
BRANCH   1  22
ATOM     22  C   LIG    1        2.942   0.994  -0.422  0.00  0.00    +0.072 C 
ATOM     23  C   LIG    1        2.606   2.459  -0.614  0.00  0.00    +0.022 C 
ATOM     24  C   LIG    1        2.824   1.558  -1.782  0.00  0.00    +0.022 C 
BRANCH  22  35
ATOM     25  C   LIG    1        4.598  -0.480   0.815  0.00  0.00    +0.054 A 
ATOM     26  C   LIG    1        5.860  -0.815   1.231  0.00  0.00    +0.173 A 
ATOM     27  O   LIG    1        6.363  -1.948   1.918  0.00  0.00    -0.395 OA
ATOM     28  C   LIG    1        7.710  -1.605   2.299  0.00  0.00    +0.589 C 
ATOM     29  F   LIG    1        7.703  -1.251   3.628  0.00  0.00    -0.125 F 
ATOM     30  F   LIG    1        8.556  -2.681   2.100  0.00  0.00    -0.125 F 
ATOM     31  O   LIG    1        7.998  -0.489   1.480  0.00  0.00    -0.395 OA
ATOM     32  C   LIG    1        6.864   0.086   0.974  0.00  0.00    +0.173 A 
ATOM     33  C   LIG    1        6.616   1.278   0.333  0.00  0.00    +0.050 A 
ATOM     34  C   LIG    1        5.337   1.573  -0.067  0.00  0.00    +0.008 A 
ATOM     35  C   LIG    1        4.266   0.687   0.163  0.00  0.00    -0.029 A 
ENDBRANCH  22  35
ENDBRANCH   1  22
TORSDOF 6
