REMARK  Name = molecules/UFULAYFCSOUIOV-UHFFFAOYSA-N.pdb
REMARK                            x       y       z     vdW  Elec       q    Type
REMARK                         _______ _______ _______ _____ _____    ______ ____
ROOT
ATOM      1  C   LIG    1       -0.825  -0.444  -0.169  0.00  0.00    +0.088 C 
ENDROOT
BRANCH   1   2
ATOM      2  N   LIG    1       -1.219   0.915   0.046  0.00  0.00    -0.329 NA
ATOM      3  H   LIG    1       -0.803   1.365   0.880  0.00  0.00    +0.118 HD
ATOM      4  H   LIG    1       -1.179   1.492  -0.819  0.00  0.00    +0.118 HD
ENDBRANCH   1   2
BRANCH   1   5
ATOM      5  C   LIG    1        0.615  -0.706   0.230  0.00  0.00    +0.080 C 
BRANCH   5   6
ATOM      6  S   LIG    1        1.758   0.328  -0.719  0.00  0.00    -0.177 S 
ATOM      7  H   LIG    1        2.486   1.208   0.105  0.00  0.00    +0.102 HD
ENDBRANCH   5   6
ENDBRANCH   1   5
TORSDOF 3
