REMARK  Name = molecules/UGJMXCAKCUNAIE-UHFFFAOYSA-N.pdb
REMARK                            x       y       z     vdW  Elec       q    Type
REMARK                         _______ _______ _______ _____ _____    ______ ____
ROOT
ATOM      1  C   LIG    1       -0.396   0.036  -0.167  0.00  0.00    -0.007 C 
ATOM      2  C   LIG    1        0.184  -0.764   0.978  0.00  0.00    +0.009 C 
ATOM      3  C   LIG    1        1.660  -0.666   1.131  0.00  0.00    +0.001 C 
ATOM      4  C   LIG    1        2.434  -0.797  -0.159  0.00  0.00    +0.000 C 
ATOM      5  C   LIG    1        1.962   0.352  -1.035  0.00  0.00    +0.001 C 
ATOM      6  C   LIG    1        0.528   0.121  -1.359  0.00  0.00    +0.009 C 
ENDROOT
BRANCH   1   7
ATOM      7  C   LIG    1       -1.641  -0.655  -0.653  0.00  0.00    +0.128 C 
BRANCH   7   8
ATOM      8  C   LIG    1       -2.675  -0.920   0.344  0.00  0.00    +0.305 C 
ATOM      9  O   LIG    1       -2.517  -0.671   1.544  0.00  0.00    -0.251 OA
BRANCH   8  10
ATOM     10  O   LIG    1       -3.869  -1.472  -0.085  0.00  0.00    -0.481 OA
ATOM     11  H   LIG    1       -4.304  -0.988  -0.885  0.00  0.00    +0.295 HD
ENDBRANCH   8  10
ENDBRANCH   7   8
ENDBRANCH   1   7
BRANCH   1  12
ATOM     12  C   LIG    1       -0.757   1.385   0.380  0.00  0.00    +0.085 C 
BRANCH  12  13
ATOM     13  N   LIG    1        0.392   2.119   0.866  0.00  0.00    -0.329 NA
ATOM     14  H   LIG    1        0.117   2.598   1.767  0.00  0.00    +0.118 HD
ATOM     15  H   LIG    1        0.578   2.914   0.182  0.00  0.00    +0.118 HD
ENDBRANCH  12  13
ENDBRANCH   1  12
TORSDOF 5
