REMARK  Name = molecules/UGOFYAXVVVXMQT-UHFFFAOYSA-N.pdb
REMARK                            x       y       z     vdW  Elec       q    Type
REMARK                         _______ _______ _______ _____ _____    ______ ____
ROOT
ATOM      1  C   LIG    1       -0.421  -0.184   0.226  0.00  0.00    -0.022 A 
ATOM      2  C   LIG    1        0.383  -1.298   0.272  0.00  0.00    +0.006 A 
ATOM      3  C   LIG    1        1.765  -1.182   0.087  0.00  0.00    +0.009 A 
ATOM      4  C   LIG    1        2.345   0.033  -0.142  0.00  0.00    -0.018 A 
ATOM      5  C   LIG    1        1.539   1.152  -0.189  0.00  0.00    +0.009 A 
ATOM      6  C   LIG    1        0.164   1.030  -0.004  0.00  0.00    +0.006 A 
ENDROOT
BRANCH   4   7
ATOM      7  C   LIG    1        3.789   0.104  -0.331  0.00  0.00    -0.018 A 
ATOM      8  C   LIG    1        4.646  -0.784   0.320  0.00  0.00    +0.010 A 
ATOM      9  C   LIG    1        6.006  -0.733   0.154  0.00  0.00    +0.020 A 
ATOM     10  C   LIG    1        6.564   0.212  -0.671  0.00  0.00    +0.041 A 
ATOM     11 CL   LIG    1        8.308   0.302  -0.902  0.00  0.00    -0.084 Cl
ATOM     12  C   LIG    1        5.750   1.126  -1.346  0.00  0.00    +0.020 A 
ATOM     13  C   LIG    1        4.398   1.034  -1.148  0.00  0.00    +0.010 A 
ENDBRANCH   4   7
BRANCH   1  14
ATOM     14  C   LIG    1       -1.893  -0.381   0.428  0.00  0.00    +0.196 C 
BRANCH  14  15
ATOM     15  O   LIG    1       -2.643   0.370  -0.417  0.00  0.00    -0.358 OA
BRANCH  15  16
ATOM     16  C   LIG    1       -3.985   0.175  -0.219  0.00  0.00    +0.160 C 
ATOM     17  C   LIG    1       -4.267   0.431   1.250  0.00  0.00    +0.053 C 
ATOM     18  C   LIG    1       -4.826   1.113  -1.080  0.00  0.00    +0.053 C 
BRANCH  16  19
ATOM     19  C   LIG    1       -4.479  -1.187  -0.507  0.00  0.00    +0.336 C 
ATOM     20  O   LIG    1       -3.737  -2.071  -0.978  0.00  0.00    -0.248 OA
BRANCH  19  21
ATOM     21  O   LIG    1       -5.802  -1.557  -0.269  0.00  0.00    -0.479 OA
ATOM     22  H   LIG    1       -6.049  -2.055   0.582  0.00  0.00    +0.295 HD
ENDBRANCH  19  21
ENDBRANCH  16  19
ENDBRANCH  15  16
ENDBRANCH  14  15
ENDBRANCH   1  14
TORSDOF 6
