REMARK  Name = molecules/UGQMRVRMYYASKQ-KQYNXXCUSA-N.pdb
REMARK                            x       y       z     vdW  Elec       q    Type
REMARK                         _______ _______ _______ _____ _____    ______ ____
ROOT
ATOM      1  C2*   I A  1       -1.129  -0.667  -1.181  0.00  0.00    +0.195 C 
ATOM      2  C3*   I A  1       -2.027  -1.212  -0.065  0.00  0.00    +0.178 C 
ATOM      3  C4*   I A  1       -2.227   0.048   0.757  0.00  0.00    +0.177 C 
ATOM      4  O4*   I A  1       -0.916   0.543   0.796  0.00  0.00    -0.346 OA
ATOM      5  C1*   I A  1       -0.606   0.603  -0.553  0.00  0.00    +0.253 C 
ENDROOT
BRANCH   5   6
ATOM      6  N9    I A  1        0.786   0.769  -0.824  0.00  0.00    -0.285 N 
ATOM      7  C4    I A  1        1.878   0.323  -0.201  0.00  0.00    +0.169 A 
ATOM      8  N3    I A  1        1.981  -0.443   0.907  0.00  0.00    -0.218 NA
ATOM      9  C2    I A  1        3.208  -0.756   1.333  0.00  0.00    +0.201 A 
ATOM     10  N1    I A  1        4.342  -0.351   0.721  0.00  0.00    -0.312 N 
ATOM     11  H1    I A  1        5.283  -0.611   1.078  0.00  0.00    +0.170 HD
ATOM     12  C6    I A  1        4.264   0.405  -0.372  0.00  0.00    +0.279 A 
ATOM     13  O6    I A  1        5.255   0.829  -1.008  0.00  0.00    -0.265 OA
ATOM     14  C5    I A  1        3.013   0.757  -0.855  0.00  0.00    +0.172 A 
ATOM     15  N7    I A  1        2.587   1.484  -1.898  0.00  0.00    -0.229 NA
ATOM     16  C8    I A  1        1.246   1.492  -1.880  0.00  0.00    +0.203 A 
ENDBRANCH   5   6
BRANCH   1  17
ATOM     17  O2*   I A  1       -2.001  -0.391  -2.252  0.00  0.00    -0.385 OA
ATOM     18  H2*   I A  1       -1.552  -0.448  -3.117  0.00  0.00    +0.210 HD
ENDBRANCH   1  17
BRANCH   2  19
ATOM     19  O3*   I A  1       -3.202  -1.730  -0.551  0.00  0.00    -0.386 OA
ATOM     20  H3*   I A  1       -3.704  -1.016  -0.988  0.00  0.00    +0.210 HD
ENDBRANCH   2  19
BRANCH   3  21
ATOM     21  C5*   I A  1       -2.743  -0.263   2.141  0.00  0.00    +0.190 C 
BRANCH  21  22
ATOM     22  O5*   I A  1       -2.708   0.942   2.863  0.00  0.00    -0.392 OA
ATOM     23  H5*   I A  1       -3.280   1.627   2.428  0.00  0.00    +0.210 HD
ENDBRANCH  21  22
ENDBRANCH   3  21
TORSDOF 5
