REMARK  Name = molecules/UHDGCWIWMRVCDJ-CCXZUQQUSA-N.pdb
REMARK                            x       y       z     vdW  Elec       q    Type
REMARK                         _______ _______ _______ _____ _____    ______ ____
ROOT
ATOM      1  C2*   C A  1       -1.017   1.256   0.887  0.00  0.00    +0.195 C 
ATOM      2  C1*   C A  1       -0.343  -0.067   1.143  0.00  0.00    +0.255 C 
ATOM      3  O4*   C A  1       -1.055  -1.039   0.475  0.00  0.00    -0.346 OA
ATOM      4  C4*   C A  1       -2.259  -0.518   0.085  0.00  0.00    +0.177 C 
ATOM      5  C3*   C A  1       -1.868   0.906  -0.326  0.00  0.00    +0.178 C 
ENDROOT
BRANCH   2   6
ATOM      6  N1    C A  1        1.054  -0.068   0.771  0.00  0.00    -0.270 N 
ATOM      7  C2    C A  1        1.939   0.671   1.451  0.00  0.00    +0.352 A 
ATOM      8  O2    C A  1        1.576   1.385   2.432  0.00  0.00    -0.244 OA
ATOM      9  N3    C A  1        3.227   0.631   1.059  0.00  0.00    -0.178 NA
ATOM     10  C4    C A  1        3.643  -0.118   0.021  0.00  0.00    +0.123 A 
ATOM     11  C5    C A  1        2.735  -0.889  -0.692  0.00  0.00    +0.061 A 
ATOM     12  C6    C A  1        1.421  -0.835  -0.277  0.00  0.00    +0.096 A 
BRANCH  10  13
ATOM     13  N4    C A  1        5.011  -0.133  -0.361  0.00  0.00    -0.343 N 
ATOM     14  H41   C A  1        5.693   0.592  -0.067  0.00  0.00    +0.144 HD
ATOM     15  H42   C A  1        5.374  -0.903  -0.968  0.00  0.00    +0.144 HD
ENDBRANCH  10  13
ENDBRANCH   2   6
BRANCH   1  16
ATOM     16  O2*   C A  1       -0.150   2.290   0.656  0.00  0.00    -0.385 OA
ATOM     17  H2*   C A  1       -0.468   3.078   1.184  0.00  0.00    +0.210 HD
ENDBRANCH   1  16
BRANCH   5  18
ATOM     18  O3*   C A  1       -2.987   1.718  -0.417  0.00  0.00    -0.386 OA
ATOM     19  H3*   C A  1       -2.873   2.310  -1.204  0.00  0.00    +0.210 HD
ENDBRANCH   5  18
BRANCH   4  20
ATOM     20  C5*   C A  1       -2.863  -1.253  -1.081  0.00  0.00    +0.190 C 
BRANCH  20  21
ATOM     21  O5*   C A  1       -4.086  -0.650  -1.404  0.00  0.00    -0.392 OA
ATOM     22  H5*   C A  1       -3.972   0.139  -1.975  0.00  0.00    +0.210 HD
ENDBRANCH  20  21
ENDBRANCH   4  20
TORSDOF 6
