REMARK  Name = molecules/UHLOVGKIEARANS-NIFPGPBJSA-N.pdb
REMARK                            x       y       z     vdW  Elec       q    Type
REMARK                         _______ _______ _______ _____ _____    ______ ____
ROOT
ATOM      1  N   LIG    1        0.218  -0.828  -0.699  0.00  0.00    -0.244 N 
ATOM      2  C   LIG    1        1.052  -0.202   0.260  0.00  0.00    +0.258 C 
ATOM      3  O   LIG    1        0.596   0.635   1.047  0.00  0.00    -0.269 OA
ATOM      4  H   LIG    1        0.676  -1.551  -1.369  0.00  0.00    +0.170 HD
ENDROOT
BRANCH   1   5
ATOM      5  N   LIG    1       -1.113  -0.645  -0.911  0.00  0.00    -0.226 NA
ATOM      6  C   LIG    1       -2.021  -1.606  -0.386  0.00  0.00    +0.109 C 
ATOM      7  C   LIG    1       -3.341  -0.995  -0.629  0.00  0.00    +0.012 C 
ATOM      8  C   LIG    1       -4.207  -0.747   0.565  0.00  0.00    -0.006 C 
ATOM      9  C   LIG    1       -3.590   0.178   1.591  0.00  0.00    +0.004 C 
ATOM     10  C   LIG    1       -3.708   1.581   1.034  0.00  0.00    +0.004 C 
ATOM     11  C   LIG    1       -4.079   1.300  -0.405  0.00  0.00    -0.006 C 
ATOM     12  C   LIG    1       -5.189   0.253  -0.101  0.00  0.00    +0.007 C 
ATOM     13  C   LIG    1       -3.108   0.438  -1.133  0.00  0.00    +0.012 C 
ATOM     14  C   LIG    1       -1.659   0.669  -0.815  0.00  0.00    +0.109 C 
ENDBRANCH   1   5
BRANCH   2  15
ATOM     15  C   LIG    1        2.457  -0.555   0.313  0.00  0.00    +0.040 A 
ATOM     16  C   LIG    1        2.879  -1.784   0.787  0.00  0.00    +0.014 A 
ATOM     17  C   LIG    1        4.205  -2.092   0.815  0.00  0.00    +0.023 A 
ATOM     18  C   LIG    1        5.130  -1.179   0.370  0.00  0.00    +0.067 A 
ATOM     19 CL   LIG    1        6.851  -1.531   0.389  0.00  0.00    -0.082 Cl
ATOM     20  C   LIG    1        4.707   0.038  -0.098  0.00  0.00    +0.124 A 
ATOM     21  C   LIG    1        3.372   0.371  -0.136  0.00  0.00    +0.043 A 
BRANCH  20  22
ATOM     22  S   LIG    1        5.874   1.202  -0.683  0.00  0.00    +0.057 S 
ATOM     23  O   LIG    1        5.162   2.470  -1.111  0.00  0.00    -0.153 OA
ATOM     24  O   LIG    1        6.580   0.616  -1.879  0.00  0.00    -0.153 OA
BRANCH  22  25
ATOM     25  N   LIG    1        6.992   1.566   0.586  0.00  0.00    -0.203 NA
ATOM     26  H   LIG    1        6.479   1.907   1.407  0.00  0.00    +0.144 HD
ATOM     27  H   LIG    1        7.689   2.263   0.257  0.00  0.00    +0.144 HD
ENDBRANCH  22  25
ENDBRANCH  20  22
ENDBRANCH   2  15
TORSDOF 4
