REMARK  Name = molecules/UHQGCIIQUZBJAE-RRQVMCLOSA-N.pdb
REMARK                            x       y       z     vdW  Elec       q    Type
REMARK                         _______ _______ _______ _____ _____    ______ ____
ROOT
ATOM      1  C   LIG    1       -2.091  -1.224  -1.551  0.00  0.00    +0.014 C 
ATOM      2  C   LIG    1       -2.460   0.057  -0.838  0.00  0.00    -0.000 C 
ATOM      3  C   LIG    1       -1.930   0.061   0.589  0.00  0.00    +0.004 C 
ATOM      4  C   LIG    1       -2.820  -0.901   1.267  0.00  0.00    +0.038 C 
ATOM      5  C   LIG    1       -4.189  -0.456   0.766  0.00  0.00    +0.144 C 
ATOM      6  C   LIG    1       -0.493  -0.283   0.523  0.00  0.00    +0.001 C 
ATOM      7  C   LIG    1        0.142  -0.580   1.858  0.00  0.00    +0.009 C 
ATOM      8  C   LIG    1        1.522  -1.161   1.566  0.00  0.00    +0.036 C 
ATOM      9  C   LIG    1        2.255  -0.318   0.585  0.00  0.00    -0.040 A 
ATOM     10  C   LIG    1        3.608  -0.516   0.424  0.00  0.00    +0.049 A 
ATOM     11  C   LIG    1        4.357   0.235  -0.475  0.00  0.00    +0.120 A 
ATOM     12  C   LIG    1        3.722   1.202  -1.222  0.00  0.00    +0.046 A 
ATOM     13  C   LIG    1        2.373   1.410  -1.073  0.00  0.00    +0.008 A 
ATOM     14  C   LIG    1        1.643   0.657  -0.177  0.00  0.00    -0.041 A 
ATOM     15  C   LIG    1        0.189   0.945  -0.076  0.00  0.00    +0.023 C 
ATOM     16  C   LIG    1       -0.390   1.386  -1.356  0.00  0.00    +0.009 C 
ATOM     17  C   LIG    1       -3.930   0.174  -0.608  0.00  0.00    +0.149 C 
ATOM     18  C   LIG    1       -1.839   1.195  -1.559  0.00  0.00    +0.010 C 
ENDROOT
BRANCH   5  19
ATOM     19  O   LIG    1       -4.628   0.541   1.640  0.00  0.00    -0.389 OA
ATOM     20  H   LIG    1       -4.159   1.395   1.406  0.00  0.00    +0.210 HD
ENDBRANCH   5  19
BRANCH  11  21
ATOM     21  O   LIG    1        5.705   0.032  -0.628  0.00  0.00    -0.495 OA
ATOM     22  C   LIG    1        6.436  -0.926   0.087  0.00  0.00    +0.277 C 
ENDBRANCH  11  21
BRANCH  17  23
ATOM     23  O   LIG    1       -4.378   1.491  -0.635  0.00  0.00    -0.389 OA
ATOM     24  H   LIG    1       -4.627   1.698  -1.580  0.00  0.00    +0.210 HD
ENDBRANCH  17  23
TORSDOF 3
