REMARK  Name = molecules/UHSKFQJFRQCDBE-UHFFFAOYSA-N.pdb
REMARK                            x       y       z     vdW  Elec       q    Type
REMARK                         _______ _______ _______ _____ _____    ______ ____
ROOT
ATOM      1  C   LIG    1        2.072   0.303   1.011  0.00  0.00    -0.041 A 
ATOM      2  C   LIG    1        2.383   1.400   1.782  0.00  0.00    +0.004 A 
ATOM      3  C   LIG    1        3.649   1.998   1.743  0.00  0.00    +0.002 A 
ATOM      4  C   LIG    1        4.601   1.470   0.912  0.00  0.00    +0.023 A 
ATOM      5  C   LIG    1        4.301   0.375   0.140  0.00  0.00    +0.037 A 
ATOM      6  N   LIG    1        5.082  -0.407  -0.771  0.00  0.00    -0.285 N 
ATOM      7  H   LIG    1        6.088  -0.234  -1.038  0.00  0.00    +0.155 HD
ATOM      8  C   LIG    1        4.325  -1.476  -1.292  0.00  0.00    +0.222 C 
ATOM      9  C   LIG    1        2.964  -1.381  -0.728  0.00  0.00    +0.133 C 
ATOM     10  O   LIG    1        4.705  -2.391  -2.109  0.00  0.00    -0.275 OA
ATOM     11  C   LIG    1        3.031  -0.221   0.181  0.00  0.00    -0.014 A 
ENDROOT
BRANCH   1  12
ATOM     12  C   LIG    1        0.680  -0.279   1.082  0.00  0.00    +0.051 C 
BRANCH  12  13
ATOM     13  C   LIG    1       -0.126   0.310  -0.018  0.00  0.00    +0.089 C 
BRANCH  13  14
ATOM     14  N   LIG    1       -1.456  -0.223  -0.056  0.00  0.00    -0.302 NA
BRANCH  14  15
ATOM     15  C   LIG    1       -1.527  -1.647  -0.057  0.00  0.00    +0.084 C 
BRANCH  15  16
ATOM     16  C   LIG    1       -2.925  -2.197  -0.175  0.00  0.00    +0.012 C 
ATOM     17  C   LIG    1       -3.825  -1.752   0.940  0.00  0.00    +0.005 C 
ENDBRANCH  15  16
ENDBRANCH  14  15
BRANCH  14  18
ATOM     18  C   LIG    1       -2.340   0.474  -0.912  0.00  0.00    +0.084 C 
BRANCH  18  19
ATOM     19  C   LIG    1       -2.704   1.849  -0.370  0.00  0.00    +0.012 C 
ATOM     20  C   LIG    1       -3.664   2.490  -1.343  0.00  0.00    +0.005 C 
ENDBRANCH  18  19
ENDBRANCH  14  18
ENDBRANCH  13  14
ENDBRANCH  12  13
ENDBRANCH   1  12
TORSDOF 7
