REMARK  Name = molecules/UHWFVIPXDFZTFA-UHFFFAOYSA-N.pdb
REMARK                            x       y       z     vdW  Elec       q    Type
REMARK                         _______ _______ _______ _____ _____    ______ ____
ROOT
ATOM      1  C   LIG    1        0.587   0.838   1.474  0.00  0.00    +0.248 C 
ATOM      2  O   LIG    1       -0.191   1.315   2.380  0.00  0.00    -0.270 OA
ATOM      3  N   LIG    1       -0.021   0.342   0.296  0.00  0.00    -0.310 N 
ATOM      4  H   LIG    1        0.432  -0.068  -0.519  0.00  0.00    +0.149 HD
ENDROOT
BRANCH   1   5
ATOM      5  C   LIG    1        1.999   0.849   1.729  0.00  0.00    +0.078 A 
ATOM      6  C   LIG    1        2.417   1.366   2.966  0.00  0.00    +0.018 A 
ATOM      7  C   LIG    1        3.737   1.407   3.299  0.00  0.00    +0.021 A 
ATOM      8  C   LIG    1        4.696   0.933   2.409  0.00  0.00    +0.044 A 
ATOM      9 CL   LIG    1        6.393   0.982   2.828  0.00  0.00    -0.083 Cl
ATOM     10  C   LIG    1        4.265   0.427   1.194  0.00  0.00    +0.066 A 
ATOM     11  C   LIG    1        2.938   0.376   0.839  0.00  0.00    +0.134 A 
BRANCH  11  12
ATOM     12  O   LIG    1        2.574  -0.122  -0.359  0.00  0.00    -0.487 OA
BRANCH  12  13
ATOM     13  C   LIG    1        3.242  -0.664  -1.417  0.00  0.00    +0.256 C 
BRANCH  13  14
ATOM     14  C   LIG    1        3.955  -1.941  -1.212  0.00  0.00    +0.006 C 
ATOM     15  C   LIG    1        3.932  -2.542  -0.040  0.00  0.00    +0.007 C 
ENDBRANCH  13  14
ENDBRANCH  12  13
ENDBRANCH  11  12
ENDBRANCH   1   5
BRANCH   3  16
ATOM     16  C   LIG    1       -1.485   0.423   0.222  0.00  0.00    +0.120 C 
BRANCH  16  17
ATOM     17  C   LIG    1       -1.952  -0.149  -1.068  0.00  0.00    +0.103 C 
BRANCH  17  18
ATOM     18  N   LIG    1       -3.333  -0.176  -1.323  0.00  0.00    -0.301 NA
BRANCH  18  19
ATOM     19  C   LIG    1       -4.057  -1.285  -0.798  0.00  0.00    +0.081 C 
ATOM     20  C   LIG    1       -3.600  -2.531  -1.563  0.00  0.00    +0.020 C 
ENDBRANCH  18  19
BRANCH  18  21
ATOM     21  C   LIG    1       -4.044   1.016  -1.538  0.00  0.00    +0.081 C 
ATOM     22  C   LIG    1       -4.236   1.946  -0.394  0.00  0.00    +0.020 C 
ENDBRANCH  18  21
ENDBRANCH  17  18
ENDBRANCH  16  17
ENDBRANCH   3  16
TORSDOF 9
