REMARK  Name = molecules/UHWVSEOVJBQKBE-UHFFFAOYSA-N.pdb
REMARK                            x       y       z     vdW  Elec       q    Type
REMARK                         _______ _______ _______ _____ _____    ______ ____
ROOT
ATOM      1  C   LIG    1        0.319  -0.479  -0.107  0.00  0.00    +0.012 A 
ATOM      2  C   LIG    1        1.220   0.569   0.315  0.00  0.00    +0.170 A 
ATOM      3  C   LIG    1        2.567   0.263   0.455  0.00  0.00    +0.204 A 
ATOM      4  C   LIG    1        3.109  -1.021   0.210  0.00  0.00    +0.165 A 
ATOM      5  C   LIG    1        2.217  -1.962  -0.188  0.00  0.00    +0.050 A 
ATOM      6  C   LIG    1        0.880  -1.712  -0.342  0.00  0.00    +0.012 A 
ENDROOT
BRANCH   2   7
ATOM      7  O   LIG    1        0.845   1.813   0.610  0.00  0.00    -0.491 OA
ATOM      8  C   LIG    1        0.649   3.074   0.245  0.00  0.00    +0.277 C 
ENDBRANCH   2   7
BRANCH   3   9
ATOM      9  O   LIG    1        3.473   1.269   0.865  0.00  0.00    -0.488 OA
ATOM     10  C   LIG    1        3.824   2.145  -0.256  0.00  0.00    +0.277 C 
ENDBRANCH   3   9
BRANCH   4  11
ATOM     11  O   LIG    1        4.454  -1.216   0.442  0.00  0.00    -0.491 OA
ATOM     12  C   LIG    1        4.993  -2.502   0.568  0.00  0.00    +0.277 C 
ENDBRANCH   4  11
BRANCH   1  13
ATOM     13  C   LIG    1       -1.039  -0.249   0.219  0.00  0.00    +0.123 C 
BRANCH  13  14
ATOM     14  N   LIG    1       -2.185  -0.299  -0.626  0.00  0.00    -0.296 NA
ATOM     15  C   LIG    1       -2.901   0.923  -0.070  0.00  0.00    +0.100 C 
ATOM     16  C   LIG    1       -4.252   1.130  -0.371  0.00  0.00    +0.096 C 
ATOM     17  N   LIG    1       -5.004  -0.076   0.122  0.00  0.00    -0.314 NA
ATOM     18  H   LIG    1       -4.698  -0.246   1.116  0.00  0.00    +0.122 HD
ATOM     19  C   LIG    1       -4.507  -1.105  -0.741  0.00  0.00    +0.096 C 
ATOM     20  C   LIG    1       -3.023  -1.401  -0.606  0.00  0.00    +0.100 C 
ENDBRANCH  13  14
ENDBRANCH   1  13
TORSDOF 5
