REMARK  Name = molecules/UIAGMCDKSXEBJQ-IBGZPJMESA-N.pdb
REMARK                            x       y       z     vdW  Elec       q    Type
REMARK                         _______ _______ _______ _____ _____    ______ ____
ROOT
ATOM      1  C   LIG    1        1.022  -0.487  -0.718  0.00  0.00    +0.065 C 
ATOM      2  C   LIG    1        1.005  -1.694  -0.173  0.00  0.00    +0.016 C 
ATOM      3  C   LIG    1        2.315  -2.342   0.144  0.00  0.00    +0.061 C 
ATOM      4  N   LIG    1       -0.209  -2.371   0.111  0.00  0.00    -0.321 N 
ATOM      5  H   LIG    1       -0.189  -3.345   0.550  0.00  0.00    +0.152 HD
ATOM      6  C   LIG    1       -1.436  -1.741  -0.196  0.00  0.00    +0.016 C 
ATOM      7  C   LIG    1       -2.679  -2.495   0.121  0.00  0.00    +0.061 C 
ATOM      8  C   LIG    1       -1.456  -0.547  -0.736  0.00  0.00    +0.065 C 
ATOM      9  C   LIG    1       -0.232   0.191  -1.046  0.00  0.00    +0.096 C 
ENDROOT
BRANCH   9  10
ATOM     10  C   LIG    1       -0.208   1.545  -0.415  0.00  0.00    -0.033 A 
ATOM     11  C   LIG    1       -0.199   1.701   0.961  0.00  0.00    +0.037 A 
ATOM     12  C   LIG    1       -0.177   2.930   1.588  0.00  0.00    +0.126 A 
ATOM     13  C   LIG    1       -0.164   4.040   0.770  0.00  0.00    +0.033 A 
ATOM     14  C   LIG    1       -0.173   3.936  -0.605  0.00  0.00    +0.003 A 
ATOM     15  C   LIG    1       -0.195   2.682  -1.187  0.00  0.00    +0.005 A 
BRANCH  12  16
ATOM     16  N   LIG    1       -0.167   3.082   2.994  0.00  0.00    +0.056 N 
ATOM     17  O   LIG    1       -0.180   2.003   3.826  0.00  0.00    -0.126 OA
ATOM     18  O   LIG    1       -0.148   4.220   3.486  0.00  0.00    -0.126 OA
ENDBRANCH  12  16
ENDBRANCH   9  10
BRANCH   1  19
ATOM     19  C   LIG    1        2.292   0.189  -1.000  0.00  0.00    +0.338 C 
ATOM     20  O   LIG    1        2.244   1.332  -1.516  0.00  0.00    -0.245 OA
BRANCH  19  21
ATOM     21  O   LIG    1        3.523  -0.337  -0.740  0.00  0.00    -0.459 OA
BRANCH  21  22
ATOM     22  C   LIG    1        4.750   0.287  -0.999  0.00  0.00    +0.260 C 
BRANCH  22  23
ATOM     23  C   LIG    1        5.878  -0.653  -0.554  0.00  0.00    +0.200 C 
BRANCH  23  24
ATOM     24  O   LIG    1        5.789  -0.934   0.794  0.00  0.00    -0.380 OA
ATOM     25  C   LIG    1        6.817  -1.776   1.141  0.00  0.00    +0.194 C 
ENDBRANCH  23  24
ENDBRANCH  22  23
ENDBRANCH  21  22
ENDBRANCH  19  21
ENDBRANCH   1  19
BRANCH   8  26
ATOM     26  C   LIG    1       -2.761   0.085  -1.044  0.00  0.00    +0.338 C 
ATOM     27  O   LIG    1       -2.796   1.238  -1.565  0.00  0.00    -0.245 OA
BRANCH  26  28
ATOM     28  O   LIG    1       -3.974  -0.507  -0.798  0.00  0.00    -0.459 OA
BRANCH  28  29
ATOM     29  C   LIG    1       -5.218   0.059  -1.075  0.00  0.00    +0.171 C 
ATOM     30  C   LIG    1       -5.937   0.240   0.265  0.00  0.00    +0.052 C 
ATOM     31  C   LIG    1       -6.099  -0.805  -1.940  0.00  0.00    +0.052 C 
ENDBRANCH  28  29
ENDBRANCH  26  28
ENDBRANCH   8  26
TORSDOF 10
