REMARK  Name = molecules/UIDWQGRXEVDFCA-XCVCLJGOSA-N.pdb
REMARK                            x       y       z     vdW  Elec       q    Type
REMARK                         _______ _______ _______ _____ _____    ______ ____
ROOT
ATOM      1  N   LIG    1        0.165   0.384  -0.020  0.00  0.00    -0.180 NA
ATOM      2  C   LIG    1        1.155  -0.462  -0.010  0.00  0.00    +0.177 C 
ENDROOT
BRANCH   1   3
ATOM      3  N   LIG    1       -1.164  -0.061   0.104  0.00  0.00    -0.168 N 
ATOM      4  C   LIG    1       -1.660  -1.208   0.854  0.00  0.00    +0.233 C 
ATOM      5  C   LIG    1       -3.085  -0.909   1.051  0.00  0.00    +0.244 C 
ATOM      6  O   LIG    1       -3.886  -1.388   1.917  0.00  0.00    -0.273 OA
ATOM      7  N   LIG    1       -3.457   0.060   0.065  0.00  0.00    -0.199 N 
ATOM      8  C   LIG    1       -2.272   0.585  -0.521  0.00  0.00    +0.333 C 
ATOM      9  O   LIG    1       -2.232   1.468  -1.435  0.00  0.00    -0.250 OA
BRANCH   7  10
ATOM     10  C   LIG    1       -4.836   0.419  -0.255  0.00  0.00    +0.276 C 
BRANCH  10  11
ATOM     11  O   LIG    1       -5.276   1.475   0.538  0.00  0.00    -0.376 OA
ATOM     12  H   LIG    1       -6.178   1.315   0.858  0.00  0.00    +0.211 HD
ENDBRANCH  10  11
ENDBRANCH   7  10
ENDBRANCH   1   3
BRANCH   2  13
ATOM     13  C   LIG    1        2.538  -0.025  -0.137  0.00  0.00    +0.150 A 
ATOM     14  O   LIG    1        3.560  -0.846  -0.132  0.00  0.00    -0.433 OA
ATOM     15  C   LIG    1        4.682  -0.154  -0.264  0.00  0.00    +0.280 A 
ATOM     16  C   LIG    1        4.376   1.182  -0.361  0.00  0.00    +0.076 A 
ATOM     17  C   LIG    1        2.984   1.252  -0.277  0.00  0.00    +0.053 A 
BRANCH  15  18
ATOM     18  N   LIG    1        5.990  -0.721  -0.299  0.00  0.00    +0.093 N 
ATOM     19  O   LIG    1        6.176  -1.942  -0.204  0.00  0.00    -0.123 OA
ATOM     20  O   LIG    1        7.083   0.099  -0.441  0.00  0.00    -0.123 OA
ENDBRANCH  15  18
ENDBRANCH   2  13
TORSDOF 5
