REMARK  Name = molecules/UIEATEWHFDRYRU-XMMPIXPASA-N.pdb
REMARK                            x       y       z     vdW  Elec       q    Type
REMARK                         _______ _______ _______ _____ _____    ______ ____
ROOT
ATOM      1  N   LIG    1       -1.606  -0.084   0.119  0.00  0.00    -0.324 N 
ENDROOT
BRANCH   1   2
ATOM      2  C   LIG    1       -2.682   0.868  -0.048  0.00  0.00    +0.030 A 
ATOM      3  C   LIG    1       -3.545   1.175   0.977  0.00  0.00    +0.023 A 
ATOM      4  C   LIG    1       -4.564   2.121   0.803  0.00  0.00    +0.002 A 
ATOM      5  C   LIG    1       -4.730   2.770  -0.402  0.00  0.00    +0.000 A 
ATOM      6  C   LIG    1       -3.882   2.483  -1.444  0.00  0.00    +0.002 A 
ATOM      7  C   LIG    1       -2.895   1.550  -1.234  0.00  0.00    +0.023 A 
ENDBRANCH   1   2
BRANCH   1   8
ATOM      8  C   LIG    1       -1.936  -1.129   1.090  0.00  0.00    +0.140 C 
BRANCH   8   9
ATOM      9  C   LIG    1       -2.986  -2.014   0.521  0.00  0.00    -0.030 A 
ATOM     10  C   LIG    1       -3.701  -2.835   1.340  0.00  0.00    +0.005 A 
ATOM     11  C   LIG    1       -4.700  -3.649   0.791  0.00  0.00    +0.000 A 
ATOM     12  C   LIG    1       -4.970  -3.635  -0.556  0.00  0.00    +0.000 A 
ATOM     13  C   LIG    1       -4.230  -2.794  -1.362  0.00  0.00    +0.000 A 
ATOM     14  C   LIG    1       -3.249  -1.996  -0.814  0.00  0.00    +0.005 A 
ENDBRANCH   8   9
ENDBRANCH   1   8
BRANCH   1  15
ATOM     15  C   LIG    1       -0.460  -0.028  -0.668  0.00  0.00    +0.126 C 
BRANCH  15  16
ATOM     16  C   LIG    1        0.894   0.224  -0.085  0.00  0.00    +0.099 C 
BRANCH  16  17
ATOM     17  N   LIG    1        1.245   1.503   0.336  0.00  0.00    -0.296 NA
ATOM     18  C   LIG    1        0.496   2.642   0.080  0.00  0.00    +0.085 C 
ATOM     19  C   LIG    1        1.331   3.531  -0.875  0.00  0.00    +0.017 C 
ATOM     20  C   LIG    1        2.689   3.290  -0.287  0.00  0.00    +0.017 C 
ATOM     21  C   LIG    1        2.635   1.803   0.074  0.00  0.00    +0.085 C 
ENDBRANCH  16  17
BRANCH  16  22
ATOM     22  C   LIG    1        1.318  -0.809   0.926  0.00  0.00    +0.180 C 
BRANCH  22  23
ATOM     23  O   LIG    1        2.645  -0.946   1.180  0.00  0.00    -0.378 OA
BRANCH  23  24
ATOM     24  C   LIG    1        3.423  -1.466   0.187  0.00  0.00    +0.162 C 
BRANCH  24  25
ATOM     25  C   LIG    1        4.868  -1.562   0.623  0.00  0.00    +0.009 C 
ATOM     26  C   LIG    1        5.472  -0.232   0.981  0.00  0.00    +0.009 C 
ATOM     27  C   LIG    1        5.656  -2.130  -0.552  0.00  0.00    +0.009 C 
ENDBRANCH  24  25
ENDBRANCH  23  24
ENDBRANCH  22  23
ENDBRANCH  16  22
ENDBRANCH  15  16
ENDBRANCH   1  15
TORSDOF 10
