REMARK  Name = molecules/UIKROCXWUNQSPJ-VIFPVBQESA-N.pdb
REMARK                            x       y       z     vdW  Elec       q    Type
REMARK                         _______ _______ _______ _____ _____    ______ ____
ROOT
ATOM      1  C   LIG    1       -1.478   1.679  -0.973  0.00  0.00    +0.132 C 
ATOM      2  N   LIG    1       -1.461   0.566  -0.063  0.00  0.00    -0.297 N 
ATOM      3  C   LIG    1       -0.423  -0.115   0.642  0.00  0.00    +0.108 C 
ATOM      4  C   LIG    1       -0.825  -1.574   0.418  0.00  0.00    +0.036 C 
ATOM      5  C   LIG    1       -2.301  -1.486   0.835  0.00  0.00    +0.098 C 
ATOM      6  C   LIG    1       -2.672  -0.123   0.321  0.00  0.00    +0.216 C 
ATOM      7  O   LIG    1       -3.861   0.281   0.265  0.00  0.00    -0.276 OA
ENDROOT
BRANCH   3   8
ATOM      8  C   LIG    1        0.945   0.160   0.224  0.00  0.00    -0.009 A 
ATOM      9  C   LIG    1        1.365   1.454   0.036  0.00  0.00    +0.116 A 
ATOM     10  N   LIG    1        2.648   1.713  -0.351  0.00  0.00    -0.263 NA
ATOM     11  C   LIG    1        3.555   0.748  -0.567  0.00  0.00    +0.111 A 
ATOM     12  C   LIG    1        3.172  -0.563  -0.389  0.00  0.00    +0.020 A 
ATOM     13  C   LIG    1        1.859  -0.849   0.009  0.00  0.00    +0.008 A 
ENDBRANCH   3   8
TORSDOF 1
