REMARK  Name = molecules/UIMOJFJSJSIGLV-JNHMLNOCSA-N.pdb
REMARK                            x       y       z     vdW  Elec       q    Type
REMARK                         _______ _______ _______ _____ _____    ______ ____
ROOT
ATOM      1  N   LIG    1        0.068  -0.327   0.148  0.00  0.00    -0.297 N 
ATOM      2  C   LIG    1       -1.189   0.222   0.485  0.00  0.00    +0.268 C 
ATOM      3  O   LIG    1       -1.193   0.993   1.524  0.00  0.00    -0.268 OA
ATOM      4  H   LIG    1        0.179  -0.896  -0.686  0.00  0.00    +0.150 HD
ENDROOT
BRANCH   1   5
ATOM      5  C   LIG    1        1.210   0.000   1.006  0.00  0.00    +0.187 C 
ATOM      6  C   LIG    1        2.184  -1.096   1.268  0.00  0.00    +0.169 C 
ATOM      7  N   LIG    1        3.225  -0.147   1.045  0.00  0.00    -0.142 N 
ATOM      8  C   LIG    1        2.330   0.636   0.284  0.00  0.00    +0.259 C 
ATOM      9  O   LIG    1        2.529   1.492  -0.613  0.00  0.00    -0.272 OA
BRANCH   7  10
ATOM     10  S   LIG    1        4.872   0.024   1.512  0.00  0.00    +0.169 S 
ATOM     11  O   LIG    1        4.915   0.257   3.007  0.00  0.00    -0.126 OA
ATOM     12  O   LIG    1        5.649  -1.246   1.241  0.00  0.00    -0.126 OA
BRANCH  10  13
ATOM     13  O   LIG    1        5.533   1.354   0.761  0.00  0.00    -0.238 OA
ATOM     14  H   LIG    1        6.369   1.592   1.236  0.00  0.00    +0.246 HD
ENDBRANCH  10  13
ENDBRANCH   7  10
BRANCH   6  15
ATOM     15  C   LIG    1        2.208  -2.277   0.368  0.00  0.00    +0.260 C 
BRANCH  15  16
ATOM     16  O   LIG    1        2.113  -2.102  -0.990  0.00  0.00    -0.449 OA
BRANCH  16  17
ATOM     17  C   LIG    1        3.032  -1.560  -1.837  0.00  0.00    +0.398 C 
ATOM     18  O   LIG    1        4.145  -1.157  -1.460  0.00  0.00    -0.227 OA
ATOM     19  N   LIG    1        2.695  -1.452  -3.224  0.00  0.00    -0.295 N 
ATOM     20  H   LIG    1        1.725  -1.300  -3.535  0.00  0.00    +0.148 HD
ATOM     21  H   LIG    1        3.454  -1.526  -3.957  0.00  0.00    +0.148 HD
ENDBRANCH  16  17
ENDBRANCH  15  16
ENDBRANCH   6  15
ENDBRANCH   1   5
BRANCH   2  22
ATOM     22  C   LIG    1       -2.453   0.049  -0.138  0.00  0.00    +0.190 C 
ATOM     23  N   LIG    1       -3.456   0.775   0.321  0.00  0.00    -0.077 NA
BRANCH  22  24
ATOM     24  C   LIG    1       -2.768  -0.873  -1.280  0.00  0.00    +0.107 A 
ATOM     25  C   LIG    1       -2.025  -1.973  -1.580  0.00  0.00    +0.078 A 
ATOM     26  S   LIG    1       -2.933  -2.677  -2.881  0.00  0.00    -0.060 S 
ATOM     27  C   LIG    1       -4.184  -1.532  -2.949  0.00  0.00    +0.156 A 
ATOM     28  N   LIG    1       -3.864  -0.694  -2.009  0.00  0.00    -0.223 NA
BRANCH  27  29
ATOM     29  N   LIG    1       -5.332  -1.440  -3.801  0.00  0.00    -0.338 N 
ATOM     30  H   LIG    1       -6.110  -0.818  -3.550  0.00  0.00    +0.144 HD
ATOM     31  H   LIG    1       -5.347  -2.004  -4.651  0.00  0.00    +0.144 HD
ENDBRANCH  27  29
ENDBRANCH  22  24
BRANCH  23  32
ATOM     32  O   LIG    1       -3.319   1.663   1.347  0.00  0.00    -0.382 OA
BRANCH  32  33
ATOM     33  C   LIG    1       -3.103   3.048   1.160  0.00  0.00    +0.382 C 
BRANCH  33  34
ATOM     34  C   LIG    1       -3.018   3.675   2.505  0.00  0.00    +0.345 C 
ATOM     35  O   LIG    1       -3.151   2.994   3.565  0.00  0.00    -0.247 OA
BRANCH  34  36
ATOM     36  O   LIG    1       -2.788   5.035   2.696  0.00  0.00    -0.478 OA
ATOM     37  H   LIG    1       -2.638   5.699   1.946  0.00  0.00    +0.295 HD
ENDBRANCH  34  36
ENDBRANCH  33  34
ENDBRANCH  32  33
ENDBRANCH  23  32
ENDBRANCH   2  22
TORSDOF 13
