REMARK  Name = molecules/UJEWTUDSLQGTOA-UHFFFAOYSA-N.pdb
REMARK                            x       y       z     vdW  Elec       q    Type
REMARK                         _______ _______ _______ _____ _____    ______ ____
ROOT
ATOM      1  C   LIG    1       -0.064  -0.533   0.731  0.00  0.00    +0.176 A 
ATOM      2  C   LIG    1        0.091  -1.863   1.061  0.00  0.00    +0.150 A 
ATOM      3  C   LIG    1       -0.878  -2.781   0.660  0.00  0.00    +0.047 A 
ATOM      4  C   LIG    1       -1.959  -2.351  -0.049  0.00  0.00    +0.063 A 
ATOM      5  C   LIG    1       -2.095  -1.000  -0.372  0.00  0.00    +0.042 A 
ATOM      6  C   LIG    1       -1.157  -0.062   0.007  0.00  0.00    +0.075 A 
ENDROOT
BRANCH   6   7
ATOM      7  N   LIG    1       -1.311   1.311  -0.330  0.00  0.00    -0.327 N 
ATOM      8  C   LIG    1       -1.411   2.463   0.571  0.00  0.00    +0.105 C 
ATOM      9  C   LIG    1       -2.468   3.355  -0.034  0.00  0.00    +0.020 C 
ATOM     10  C   LIG    1       -2.501   2.958  -1.488  0.00  0.00    +0.020 C 
ATOM     11  C   LIG    1       -1.407   1.907  -1.667  0.00  0.00    +0.105 C 
ENDBRANCH   6   7
BRANCH   2  12
ATOM     12  S   LIG    1        1.482  -2.412   1.974  0.00  0.00    +0.060 S 
ATOM     13  O   LIG    1        1.436  -1.790   3.365  0.00  0.00    -0.153 OA
ATOM     14  O   LIG    1        2.768  -2.092   1.306  0.00  0.00    -0.153 OA
BRANCH  12  15
ATOM     15  N   LIG    1        1.369  -4.120   2.217  0.00  0.00    -0.203 NA
ATOM     16  H   LIG    1        0.759  -4.380   2.998  0.00  0.00    +0.144 HD
ATOM     17  H   LIG    1        2.272  -4.599   2.160  0.00  0.00    +0.144 HD
ENDBRANCH  12  15
ENDBRANCH   2  12
BRANCH   4  18
ATOM     18  C   LIG    1       -2.974  -3.300  -0.471  0.00  0.00    +0.337 C 
ATOM     19  O   LIG    1       -3.982  -2.918  -1.129  0.00  0.00    -0.245 OA
BRANCH  18  20
ATOM     20  O   LIG    1       -2.828  -4.636  -0.145  0.00  0.00    -0.477 OA
ATOM     21  H   LIG    1       -2.128  -5.154  -0.687  0.00  0.00    +0.295 HD
ENDBRANCH  18  20
ENDBRANCH   4  18
BRANCH   1  22
ATOM     22  O   LIG    1        0.867   0.420   1.103  0.00  0.00    -0.452 OA
BRANCH  22  23
ATOM     23  C   LIG    1        1.955   0.774   0.314  0.00  0.00    +0.129 A 
ATOM     24  C   LIG    1        2.832   1.718   0.753  0.00  0.00    +0.046 A 
ATOM     25  C   LIG    1        3.944   2.116   0.005  0.00  0.00    +0.004 A 
ATOM     26  C   LIG    1        4.166   1.535  -1.224  0.00  0.00    +0.000 A 
ATOM     27  C   LIG    1        3.289   0.575  -1.691  0.00  0.00    +0.004 A 
ATOM     28  C   LIG    1        2.188   0.200  -0.919  0.00  0.00    +0.046 A 
ENDBRANCH  22  23
ENDBRANCH   1  22
TORSDOF 7
