REMARK  Name = molecules/UJKPHYRXOLRVJJ-LRGCGCQZSA-N.pdb
REMARK                            x       y       z     vdW  Elec       q    Type
REMARK                         _______ _______ _______ _____ _____    ______ ____
ROOT
ATOM      1  C   LIG    1        2.700   2.225  -0.270  0.00  0.00    -0.019 A 
ATOM      2  C   LIG    1        2.099   1.038   0.207  0.00  0.00    +0.045 A 
ATOM      3  N   LIG    1        0.798   1.240   0.475  0.00  0.00    -0.355 N 
ATOM      4  H   LIG    1        0.083   0.491   0.894  0.00  0.00    +0.166 HD
ATOM      5  C   LIG    1        0.535   2.520   0.183  0.00  0.00    +0.045 A 
ATOM      6  C   LIG    1       -0.656   3.266   0.259  0.00  0.00    +0.054 C 
ATOM      7  C   LIG    1       -1.945   2.820   0.013  0.00  0.00    +0.072 C 
ATOM      8  N   LIG    1       -2.195   1.485   0.187  0.00  0.00    -0.247 NA
ATOM      9  C   LIG    1       -3.465   1.186  -0.079  0.00  0.00    +0.070 C 
ATOM     10  C   LIG    1       -3.831  -0.132   0.063  0.00  0.00    +0.054 C 
ATOM     11  C   LIG    1       -3.072  -1.287  -0.220  0.00  0.00    +0.048 A 
ATOM     12  C   LIG    1       -3.615  -2.555  -0.002  0.00  0.00    +0.009 A 
ATOM     13  C   LIG    1       -2.567  -3.432  -0.307  0.00  0.00    -0.020 A 
ATOM     14  C   LIG    1       -2.714  -4.933  -0.201  0.00  0.00    +0.046 C 
ATOM     15  C   LIG    1       -1.474  -2.664  -0.689  0.00  0.00    +0.045 A 
ATOM     16  C   LIG    1       -0.272  -3.308  -1.044  0.00  0.00    +0.054 C 
ATOM     17  C   LIG    1        1.011  -2.894  -0.761  0.00  0.00    +0.070 C 
ATOM     18  N   LIG    1        1.229  -1.620  -0.334  0.00  0.00    -0.247 NA
ATOM     19  C   LIG    1        2.524  -1.405  -0.125  0.00  0.00    +0.070 C 
ATOM     20  C   LIG    1        3.234  -2.623  -0.431  0.00  0.00    -0.017 C 
ATOM     21  C   LIG    1        2.327  -3.507  -0.811  0.00  0.00    -0.020 C 
ATOM     22  C   LIG    1        2.630  -4.920  -1.226  0.00  0.00    +0.046 C 
ATOM     23  N   LIG    1       -1.789  -1.363  -0.636  0.00  0.00    -0.354 N 
ATOM     24  H   LIG    1       -1.118  -0.519  -0.913  0.00  0.00    +0.166 HD
ATOM     25  C   LIG    1       -4.131   2.405  -0.464  0.00  0.00    -0.017 C 
ATOM     26  C   LIG    1       -5.573   2.574  -0.858  0.00  0.00    +0.046 C 
ATOM     27  C   LIG    1       -3.224   3.363  -0.407  0.00  0.00    +0.011 C 
ATOM     28  C   LIG    1        2.882  -0.132   0.291  0.00  0.00    +0.054 C 
ATOM     29  C   LIG    1        1.706   3.157  -0.283  0.00  0.00    -0.022 A 
ATOM     30  C   LIG    1        1.917   4.583  -0.724  0.00  0.00    +0.046 C 
ENDROOT
BRANCH  12  31
ATOM     31  C   LIG    1       -4.921  -3.075   0.452  0.00  0.00    +0.144 C 
ATOM     32  C   LIG    1       -6.112  -2.202   0.307  0.00  0.00    +0.043 C 
BRANCH  31  33
ATOM     33  O   LIG    1       -5.176  -4.229  -0.349  0.00  0.00    -0.387 OA
ATOM     34  H   LIG    1       -6.131  -4.356  -0.478  0.00  0.00    +0.210 HD
ENDBRANCH  31  33
ENDBRANCH  12  31
BRANCH  27  35
ATOM     35  C   LIG    1       -3.474   4.813  -0.733  0.00  0.00    +0.144 C 
ATOM     36  C   LIG    1       -3.158   5.610   0.511  0.00  0.00    +0.043 C 
BRANCH  35  37
ATOM     37  O   LIG    1       -4.807   5.024  -1.039  0.00  0.00    -0.387 OA
ATOM     38  H   LIG    1       -5.297   5.453  -0.265  0.00  0.00    +0.210 HD
ENDBRANCH  35  37
ENDBRANCH  27  35
BRANCH   1  39
ATOM     39  C   LIG    1        4.140   2.473  -0.647  0.00  0.00    +0.048 C 
BRANCH  39  40
ATOM     40  C   LIG    1        5.003   2.724   0.570  0.00  0.00    +0.125 C 
BRANCH  40  41
ATOM     41  C   LIG    1        6.387   2.931   0.100  0.00  0.00    +0.305 C 
ATOM     42  O   LIG    1        7.128   1.949  -0.142  0.00  0.00    -0.251 OA
BRANCH  41  43
ATOM     43  O   LIG    1        6.891   4.199  -0.082  0.00  0.00    -0.481 OA
ATOM     44  H   LIG    1        7.710   4.393  -0.662  0.00  0.00    +0.295 HD
ENDBRANCH  41  43
ENDBRANCH  40  41
ENDBRANCH  39  40
ENDBRANCH   1  39
BRANCH  20  45
ATOM     45  C   LIG    1        4.717  -2.854  -0.375  0.00  0.00    +0.049 C 
BRANCH  45  46
ATOM     46  C   LIG    1        5.258  -2.824   1.028  0.00  0.00    +0.125 C 
BRANCH  46  47
ATOM     47  C   LIG    1        4.595  -3.888   1.827  0.00  0.00    +0.305 C 
ATOM     48  O   LIG    1        3.447  -3.728   2.342  0.00  0.00    -0.251 OA
BRANCH  47  49
ATOM     49  O   LIG    1        5.275  -5.096   2.006  0.00  0.00    -0.481 OA
ATOM     50  H   LIG    1        4.936  -5.977   1.691  0.00  0.00    +0.295 HD
ENDBRANCH  47  49
ENDBRANCH  46  47
ENDBRANCH  45  46
ENDBRANCH  20  45
TORSDOF 12
