REMARK  Name = molecules/UJLAWZDWDVHWOW-YPMHNXCESA-N.pdb
REMARK                            x       y       z     vdW  Elec       q    Type
REMARK                         _______ _______ _______ _____ _____    ______ ____
ROOT
ATOM      1  N   LIG    1       -1.108  -0.073  -0.914  0.00  0.00    -0.313 N 
ATOM      2  C   LIG    1       -1.654  -0.651  -2.127  0.00  0.00    +0.131 C 
ENDROOT
BRANCH   1   3
ATOM      3  C   LIG    1       -1.906   0.684  -0.044  0.00  0.00    +0.134 A 
ATOM      4  N   LIG    1       -1.298   1.572   0.786  0.00  0.00    -0.220 NA
ATOM      5  C   LIG    1       -1.929   2.376   1.634  0.00  0.00    +0.225 A 
ATOM      6  N   LIG    1       -3.290   2.310   1.681  0.00  0.00    -0.218 NA
ATOM      7  C   LIG    1       -3.981   1.472   0.911  0.00  0.00    +0.143 A 
ATOM      8  N   LIG    1       -5.289   1.240   0.809  0.00  0.00    -0.346 N 
ATOM      9  H   LIG    1       -6.097   1.682   1.318  0.00  0.00    +0.167 HD
ATOM     10  C   LIG    1       -5.483   0.278  -0.111  0.00  0.00    +0.085 A 
ATOM     11  C   LIG    1       -4.237  -0.099  -0.598  0.00  0.00    +0.032 A 
ATOM     12  C   LIG    1       -3.273   0.648   0.036  0.00  0.00    +0.059 A 
ENDBRANCH   1   3
BRANCH   1  13
ATOM     13  C   LIG    1        0.303  -0.325  -0.712  0.00  0.00    +0.095 C 
ATOM     14  C   LIG    1        1.001   0.475   0.308  0.00  0.00    +0.130 C 
ATOM     15  N   LIG    1        2.408   0.200   0.233  0.00  0.00    -0.299 N 
ATOM     16  C   LIG    1        2.883  -1.153   0.220  0.00  0.00    +0.108 C 
ATOM     17  C   LIG    1        2.060  -2.012  -0.753  0.00  0.00    +0.024 C 
ATOM     18  C   LIG    1        3.355   1.252   0.171  0.00  0.00    +0.229 C 
ATOM     19  O   LIG    1        2.989   2.478   0.180  0.00  0.00    -0.274 OA
ATOM     20  C   LIG    1        0.584  -1.792  -0.505  0.00  0.00    +0.009 C 
ATOM     21  C   LIG    1        0.204  -2.259   0.885  0.00  0.00    +0.009 C 
BRANCH  18  22
ATOM     22  C   LIG    1        4.816   1.007   0.093  0.00  0.00    +0.214 C 
BRANCH  22  23
ATOM     23  C   LIG    1        5.523   2.279   0.043  0.00  0.00    +0.072 C 
ATOM     24  N   LIG    1        6.083   3.309   0.016  0.00  0.00    -0.196 NA
ENDBRANCH  22  23
ENDBRANCH  18  22
ENDBRANCH   1  13
TORSDOF 4
