REMARK  Name = molecules/UJRRDDHEMZLWFI-UHFFFAOYSA-N.pdb
REMARK                            x       y       z     vdW  Elec       q    Type
REMARK                         _______ _______ _______ _____ _____    ______ ____
ROOT
ATOM      1  C   LIG    1        0.098  -0.241  -0.001  0.00  0.00    +0.166 A 
ATOM      2  N   LIG    1        0.684   0.869   0.372  0.00  0.00    -0.231 NA
ATOM      3  C   LIG    1        1.974   0.919   0.508  0.00  0.00    +0.153 A 
ATOM      4  C   LIG    1        2.687  -0.219   0.249  0.00  0.00    +0.185 A 
ATOM      5  S   LIG    1        1.441  -1.307  -0.181  0.00  0.00    -0.028 S 
ENDROOT
BRANCH   1   6
ATOM      6  N   LIG    1       -1.280  -0.558  -0.222  0.00  0.00    -0.265 N 
ATOM      7  C   LIG    1       -2.271   0.406  -0.039  0.00  0.00    +0.216 C 
ATOM      8  O   LIG    1       -2.023   1.605   0.329  0.00  0.00    -0.276 OA
ATOM      9  C   LIG    1       -3.697   0.058  -0.273  0.00  0.00    +0.109 C 
ATOM     10  H   LIG    1       -1.524  -1.522  -0.522  0.00  0.00    +0.157 HD
ENDBRANCH   1   6
BRANCH   4  11
ATOM     11  N   LIG    1        4.103  -0.429   0.322  0.00  0.00    +0.065 N 
ATOM     12  O   LIG    1        4.892   0.446   0.647  0.00  0.00    -0.126 OA
ATOM     13  O   LIG    1        4.612  -1.674   0.013  0.00  0.00    -0.126 OA
ENDBRANCH   4  11
TORSDOF 2
