REMARK  Name = molecules/UJSKUDDDPKGBJY-WFASDCNBSA-N.pdb
REMARK                            x       y       z     vdW  Elec       q    Type
REMARK                         _______ _______ _______ _____ _____    ______ ____
ROOT
ATOM      1  C   LIG    1       -0.451   0.788   0.808  0.00  0.00    +0.138 C 
ENDROOT
BRANCH   1   2
ATOM      2  N   LIG    1       -1.363   0.250  -0.191  0.00  0.00    -0.323 N 
ATOM      3  C   LIG    1       -2.699   0.247   0.067  0.00  0.00    +0.151 A 
ATOM      4  C   LIG    1       -3.453   0.631   1.127  0.00  0.00    +0.282 A 
ATOM      5  O   LIG    1       -2.929   1.105   2.150  0.00  0.00    -0.265 OA
ATOM      6  N   LIG    1       -4.808   0.503   1.073  0.00  0.00    -0.262 N 
ATOM      7  C   LIG    1       -5.625   0.898   2.191  0.00  0.00    +0.157 C 
ATOM      8  C   LIG    1       -5.365  -0.002  -0.031  0.00  0.00    +0.333 A 
ATOM      9  O   LIG    1       -6.627  -0.123  -0.086  0.00  0.00    -0.246 OA
ATOM     10  N   LIG    1       -4.651  -0.402  -1.122  0.00  0.00    -0.280 N 
ATOM     11  C   LIG    1       -5.332  -0.920  -2.290  0.00  0.00    +0.155 C 
ATOM     12  C   LIG    1       -3.311  -0.268  -1.053  0.00  0.00    +0.168 A 
ATOM     13  N   LIG    1       -2.348  -0.554  -1.930  0.00  0.00    -0.218 NA
ATOM     14  C   LIG    1       -1.145  -0.225  -1.376  0.00  0.00    +0.202 A 
ENDBRANCH   1   2
BRANCH   1  15
ATOM     15  C   LIG    1       -0.027  -0.209   1.806  0.00  0.00    +0.103 C 
BRANCH  15  16
ATOM     16  N   LIG    1        0.868  -1.255   1.270  0.00  0.00    -0.309 NA
ATOM     17  H   LIG    1        0.530  -1.551   0.337  0.00  0.00    +0.122 HD
BRANCH  16  18
ATOM     18  C   LIG    1        2.166  -0.612   1.055  0.00  0.00    +0.084 C 
ATOM     19  C   LIG    1        3.163  -1.095   2.098  0.00  0.00    +0.027 C 
BRANCH  18  20
ATOM     20  C   LIG    1        2.625  -0.837  -0.351  0.00  0.00    +0.161 C 
BRANCH  20  21
ATOM     21  C   LIG    1        3.832  -0.040  -0.623  0.00  0.00    -0.018 A 
ATOM     22  C   LIG    1        3.778   1.318  -0.356  0.00  0.00    +0.006 A 
ATOM     23  C   LIG    1        4.859   2.154  -0.566  0.00  0.00    +0.000 A 
ATOM     24  C   LIG    1        6.013   1.575  -1.055  0.00  0.00    +0.000 A 
ATOM     25  C   LIG    1        6.096   0.231  -1.327  0.00  0.00    +0.000 A 
ATOM     26  C   LIG    1        4.995  -0.587  -1.111  0.00  0.00    +0.006 A 
ENDBRANCH  20  21
BRANCH  20  27
ATOM     27  O   LIG    1        2.825  -2.200  -0.580  0.00  0.00    -0.386 OA
ATOM     28  H   LIG    1        2.833  -2.361  -1.546  0.00  0.00    +0.210 HD
ENDBRANCH  20  27
ENDBRANCH  18  20
ENDBRANCH  16  18
ENDBRANCH  15  16
ENDBRANCH   1  15
TORSDOF 7
