REMARK  Name = molecules/UKTAZPQNNNJVKR-YXSUXZIUSA-N.pdb
REMARK                            x       y       z     vdW  Elec       q    Type
REMARK                         _______ _______ _______ _____ _____    ______ ____
ROOT
ATOM      1  O   LIG    1       -0.503  -0.181  -0.002  0.00  0.00    -0.458 OA
ENDROOT
BRANCH   1   2
ATOM      2  C   LIG    1        0.710   0.547   0.059  0.00  0.00    +0.180 C 
ATOM      3  C   LIG    1        1.482   0.001   1.227  0.00  0.00    +0.063 C 
ATOM      4  C   LIG    1        2.972   0.055   1.033  0.00  0.00    +0.062 C 
ATOM      5  C   LIG    1        3.486  -1.314   0.605  0.00  0.00    +0.030 C 
ATOM      6  C   LIG    1        4.476  -1.079  -0.549  0.00  0.00    +0.059 C 
ATOM      7  C   LIG    1        5.353   0.070  -0.229  0.00  0.00    +0.150 C 
ATOM      8  C   LIG    1        4.710   1.345   0.158  0.00  0.00    +0.159 C 
ATOM      9  O   LIG    1        6.547  -0.040  -0.285  0.00  0.00    -0.296 OA
ATOM     10  C   LIG    1        3.577  -0.590  -1.696  0.00  0.00    +0.030 C 
ATOM     11  C   LIG    1        2.869   0.649  -1.225  0.00  0.00    +0.062 C 
ATOM     12  N   LIG    1        3.273   1.097   0.089  0.00  0.00    -0.289 NA
ATOM     13  C   LIG    1        1.401   0.428  -1.251  0.00  0.00    +0.063 C 
ENDBRANCH   1   2
BRANCH   1  14
ATOM     14  C   LIG    1       -1.749   0.394   0.178  0.00  0.00    +0.341 C 
ATOM     15  O   LIG    1       -1.769   1.629   0.405  0.00  0.00    -0.245 OA
BRANCH  14  16
ATOM     16  C   LIG    1       -2.987  -0.357   0.116  0.00  0.00    +0.084 A 
ATOM     17  C   LIG    1       -4.253   0.147   0.284  0.00  0.00    +0.014 A 
ATOM     18  C   LIG    1       -4.745   1.417   0.545  0.00  0.00    +0.011 A 
ATOM     19  C   LIG    1       -6.093   1.678   0.674  0.00  0.00    +0.001 A 
ATOM     20  C   LIG    1       -6.969   0.630   0.535  0.00  0.00    +0.002 A 
ATOM     21  C   LIG    1       -6.549  -0.647   0.276  0.00  0.00    +0.026 A 
ATOM     22  C   LIG    1       -5.197  -0.885   0.152  0.00  0.00    +0.047 A 
ATOM     23  N   LIG    1       -4.468  -1.994  -0.095  0.00  0.00    -0.360 N 
ATOM     24  H   LIG    1       -4.881  -2.929  -0.241  0.00  0.00    +0.165 HD
ATOM     25  C   LIG    1       -3.160  -1.703  -0.120  0.00  0.00    +0.098 A 
ENDBRANCH  14  16
ENDBRANCH   1  14
TORSDOF 3
