REMARK  Name = molecules/ULFRLSNUDGIQQP-UHFFFAOYSA-N.pdb
REMARK                            x       y       z     vdW  Elec       q    Type
REMARK                         _______ _______ _______ _____ _____    ______ ____
ROOT
ATOM      1  C   LIG    1       -1.456  -1.645   0.114  0.00  0.00    -0.021 A 
ATOM      2  C   LIG    1       -0.163  -1.459  -0.401  0.00  0.00    +0.003 A 
ATOM      3  C   LIG    1        1.005  -0.963   0.152  0.00  0.00    +0.015 A 
ATOM      4  C   LIG    1        2.181  -0.875  -0.572  0.00  0.00    -0.025 A 
ATOM      5  C   LIG    1        2.133  -1.310  -1.881  0.00  0.00    +0.007 A 
ATOM      6  C   LIG    1        0.976  -1.809  -2.449  0.00  0.00    +0.026 A 
ATOM      7  C   LIG    1       -0.207  -1.891  -1.703  0.00  0.00    +0.047 A 
ATOM      8  N   LIG    1       -1.440  -2.310  -1.959  0.00  0.00    -0.360 N 
ATOM      9  H   LIG    1       -1.736  -2.692  -2.893  0.00  0.00    +0.165 HD
ATOM     10  C   LIG    1       -2.236  -2.182  -0.889  0.00  0.00    +0.087 A 
ENDROOT
BRANCH   1  11
ATOM     11  C   LIG    1       -1.789  -1.310   1.499  0.00  0.00    +0.052 C 
BRANCH  11  12
ATOM     12  C   LIG    1       -1.936   0.164   1.701  0.00  0.00    +0.088 C 
BRANCH  12  13
ATOM     13  N   LIG    1       -2.958   0.838   0.990  0.00  0.00    -0.308 NA
ATOM     14  C   LIG    1       -2.939   2.248   1.453  0.00  0.00    +0.104 C 
ATOM     15  C   LIG    1       -2.895   0.890  -0.422  0.00  0.00    +0.104 C 
ENDBRANCH  12  13
ENDBRANCH  11  12
ENDBRANCH   1  11
BRANCH   4  16
ATOM     16  C   LIG    1        3.409  -0.336   0.067  0.00  0.00    +0.180 C 
BRANCH  16  17
ATOM     17  N   LIG    1        3.548   1.083  -0.073  0.00  0.00    -0.248 N 
ATOM     18  C   LIG    1        3.064   1.988   0.800  0.00  0.00    +0.219 A 
ATOM     19  N   LIG    1        3.365   3.240   0.376  0.00  0.00    -0.223 NA
ATOM     20  C   LIG    1        4.040   3.087  -0.774  0.00  0.00    +0.245 A 
ATOM     21  N   LIG    1        4.146   1.766  -1.037  0.00  0.00    -0.158 NA
ENDBRANCH  16  17
ENDBRANCH   4  16
TORSDOF 5
