REMARK  Name = molecules/ULLNJSBQMBKOJH-HWVUQVAQSA-N.pdb
REMARK                            x       y       z     vdW  Elec       q    Type
REMARK                         _______ _______ _______ _____ _____    ______ ____
ROOT
ATOM      1  C   LIG    1       -0.244   0.242  -0.690  0.00  0.00    +0.176 C 
ENDROOT
BRANCH   1   2
ATOM      2  C   LIG    1        0.532   0.294   0.595  0.00  0.00    +0.184 C 
ATOM      3  O   LIG    1        0.081  -0.731   1.428  0.00  0.00    -0.340 OA
ATOM      4  C   LIG    1        1.066  -1.002   2.332  0.00  0.00    +0.282 C 
ATOM      5  C   LIG    1        2.287  -0.213   1.966  0.00  0.00    +0.201 C 
ATOM      6  C   LIG    1        2.011   0.019   0.454  0.00  0.00    +0.183 C 
BRANCH   5   7
ATOM      7  O   LIG    1        2.321   0.982   2.638  0.00  0.00    -0.384 OA
ATOM      8  H   LIG    1        3.285   1.210   2.820  0.00  0.00    +0.210 HD
ENDBRANCH   5   7
BRANCH   4   9
ATOM      9  O   LIG    1        1.331  -2.363   2.475  0.00  0.00    -0.349 OA
BRANCH   9  10
ATOM     10  C   LIG    1        1.123  -2.682   3.815  0.00  0.00    +0.160 C 
ATOM     11  C   LIG    1        1.367  -4.116   4.156  0.00  0.00    +0.034 C 
ENDBRANCH   9  10
ENDBRANCH   4   9
BRANCH   6  12
ATOM     12  O   LIG    1        2.333  -1.087  -0.267  0.00  0.00    -0.367 OA
BRANCH  12  13
ATOM     13  C   LIG    1        3.340  -0.931  -1.164  0.00  0.00    +0.195 C 
BRANCH  13  14
ATOM     14  C   LIG    1        3.165   0.055  -2.224  0.00  0.00    -0.022 A 
ATOM     15  C   LIG    1        3.733   1.315  -2.150  0.00  0.00    +0.006 A 
ATOM     16  C   LIG    1        3.579   2.265  -3.147  0.00  0.00    +0.000 A 
ATOM     17  C   LIG    1        2.835   1.931  -4.244  0.00  0.00    +0.000 A 
ATOM     18  C   LIG    1        2.260   0.676  -4.335  0.00  0.00    +0.000 A 
ATOM     19  C   LIG    1        2.410  -0.274  -3.345  0.00  0.00    +0.006 A 
ENDBRANCH  13  14
ENDBRANCH  12  13
ENDBRANCH   6  12
ENDBRANCH   1   2
BRANCH   1  20
ATOM     20  C   LIG    1       -0.080   1.576  -1.369  0.00  0.00    +0.194 C 
BRANCH  20  21
ATOM     21  O   LIG    1       -0.988   1.852  -2.361  0.00  0.00    -0.373 OA
BRANCH  21  22
ATOM     22  C   LIG    1       -2.301   1.905  -1.984  0.00  0.00    +0.195 C 
BRANCH  22  23
ATOM     23  C   LIG    1       -2.648   2.900  -0.975  0.00  0.00    -0.022 A 
ATOM     24  C   LIG    1       -3.054   2.518   0.277  0.00  0.00    +0.006 A 
ATOM     25  C   LIG    1       -3.395   3.450   1.264  0.00  0.00    +0.000 A 
ATOM     26  C   LIG    1       -3.325   4.781   0.981  0.00  0.00    +0.000 A 
ATOM     27  C   LIG    1       -2.922   5.192  -0.263  0.00  0.00    +0.000 A 
ATOM     28  C   LIG    1       -2.584   4.251  -1.242  0.00  0.00    +0.006 A 
ENDBRANCH  22  23
ENDBRANCH  21  22
ENDBRANCH  20  21
ENDBRANCH   1  20
BRANCH   1  29
ATOM     29  O   LIG    1       -0.131  -0.871  -1.427  0.00  0.00    -0.367 OA
BRANCH  29  30
ATOM     30  C   LIG    1       -1.169  -1.699  -1.642  0.00  0.00    +0.195 C 
BRANCH  30  31
ATOM     31  C   LIG    1       -1.784  -2.318  -0.446  0.00  0.00    -0.022 A 
ATOM     32  C   LIG    1       -1.224  -3.437   0.176  0.00  0.00    +0.006 A 
ATOM     33  C   LIG    1       -1.806  -4.012   1.281  0.00  0.00    +0.000 A 
ATOM     34  C   LIG    1       -2.961  -3.486   1.792  0.00  0.00    +0.000 A 
ATOM     35  C   LIG    1       -3.544  -2.391   1.214  0.00  0.00    +0.000 A 
ATOM     36  C   LIG    1       -2.942  -1.813   0.089  0.00  0.00    +0.006 A 
ENDBRANCH  30  31
ENDBRANCH  29  30
ENDBRANCH   1  29
TORSDOF 14
