REMARK  Name = molecules/ULSIYEODSMZIPX-MRVPVSSYSA-N.pdb
REMARK                            x       y       z     vdW  Elec       q    Type
REMARK                         _______ _______ _______ _____ _____    ______ ____
ROOT
ATOM      1  C   LIG    1        1.037  -0.604   0.449  0.00  0.00    +0.158 C 
ENDROOT
BRANCH   1   2
ATOM      2  C   LIG    1       -0.390  -0.271   0.184  0.00  0.00    -0.018 A 
ATOM      3  C   LIG    1       -0.953   0.926   0.576  0.00  0.00    +0.006 A 
ATOM      4  C   LIG    1       -2.280   1.214   0.319  0.00  0.00    +0.000 A 
ATOM      5  C   LIG    1       -3.103   0.322  -0.339  0.00  0.00    +0.000 A 
ATOM      6  C   LIG    1       -2.541  -0.876  -0.732  0.00  0.00    +0.000 A 
ATOM      7  C   LIG    1       -1.215  -1.161  -0.474  0.00  0.00    +0.006 A 
ENDBRANCH   1   2
BRANCH   1   8
ATOM      8  O   LIG    1        1.359  -0.266   1.759  0.00  0.00    -0.386 OA
ATOM      9  H   LIG    1        2.290  -0.572   1.916  0.00  0.00    +0.210 HD
ENDBRANCH   1   8
BRANCH   1  10
ATOM     10  C   LIG    1        1.878   0.218  -0.498  0.00  0.00    +0.114 C 
BRANCH  10  11
ATOM     11  N   LIG    1        3.292  -0.035  -0.277  0.00  0.00    -0.327 NA
ATOM     12  H   LIG    1        3.531   0.420   0.637  0.00  0.00    +0.118 HD
ATOM     13  H   LIG    1        3.837   0.399  -1.055  0.00  0.00    +0.118 HD
ENDBRANCH  10  11
ENDBRANCH   1  10
TORSDOF 4
