REMARK  Name = molecules/ULXXDDBFHOBEHA-CWDCEQMOSA-N.pdb
REMARK                            x       y       z     vdW  Elec       q    Type
REMARK                         _______ _______ _______ _____ _____    ______ ____
ROOT
ATOM      1  C   LIG    1        3.423  -1.117  -1.612  0.00  0.00    +0.134 A 
ATOM      2  C   LIG    1        2.370  -0.224  -1.458  0.00  0.00    +0.042 A 
ATOM      3  C   LIG    1        1.208  -0.522  -0.741  0.00  0.00    +0.040 A 
ATOM      4  C   LIG    1        0.174   0.385  -0.600  0.00  0.00    +0.077 A 
ATOM      5  C   LIG    1        0.283   1.659  -1.195  0.00  0.00    +0.144 A 
ATOM      6  C   LIG    1        1.437   1.914  -1.889  0.00  0.00    +0.076 A 
ATOM      7  C   LIG    1        2.474   1.006  -2.031  0.00  0.00    +0.080 A 
ATOM      8  N   LIG    1        3.552   1.369  -2.731  0.00  0.00    -0.235 NA
ATOM      9  C   LIG    1        4.555   0.486  -2.864  0.00  0.00    +0.223 A 
ATOM     10  N   LIG    1        4.514  -0.732  -2.327  0.00  0.00    -0.220 NA
ENDROOT
BRANCH   4  11
ATOM     11  N   LIG    1       -1.005   0.101   0.120  0.00  0.00    -0.279 N 
ATOM     12  C   LIG    1       -1.270  -1.107   0.766  0.00  0.00    +0.241 C 
ATOM     13  O   LIG    1       -0.457  -2.064   0.756  0.00  0.00    -0.271 OA
ATOM     14  H   LIG    1       -1.731   0.891   0.156  0.00  0.00    +0.155 HD
BRANCH  12  15
ATOM     15  C   LIG    1       -2.533  -1.317   1.497  0.00  0.00    +0.064 C 
ATOM     16  C   LIG    1       -3.433  -0.396   1.566  0.00  0.00    -0.007 C 
BRANCH  16  17
ATOM     17  C   LIG    1       -4.698  -0.666   2.325  0.00  0.00    +0.111 C 
BRANCH  17  18
ATOM     18  N   LIG    1       -4.791   0.299   3.382  0.00  0.00    -0.305 NA
ATOM     19  C   LIG    1       -5.964   0.151   4.190  0.00  0.00    +0.104 C 
ATOM     20  C   LIG    1       -3.578   0.436   4.128  0.00  0.00    +0.104 C 
ENDBRANCH  17  18
ENDBRANCH  16  17
ENDBRANCH  12  15
ENDBRANCH   4  11
BRANCH   1  21
ATOM     21  N   LIG    1        3.350  -2.416  -1.059  0.00  0.00    -0.299 N 
ATOM     22  H   LIG    1        2.494  -2.748  -0.539  0.00  0.00    +0.154 HD
BRANCH  21  23
ATOM     23  C   LIG    1        4.413  -3.332  -1.172  0.00  0.00    +0.034 A 
ATOM     24  C   LIG    1        4.086  -4.691  -1.047  0.00  0.00    +0.026 A 
ATOM     25  C   LIG    1        5.014  -5.699  -1.159  0.00  0.00    +0.041 A 
ATOM     26  C   LIG    1        6.340  -5.388  -1.406  0.00  0.00    +0.142 A 
ATOM     27  F   LIG    1        7.251  -6.385  -1.515  0.00  0.00    -0.204 F 
ATOM     28  C   LIG    1        6.691  -4.066  -1.532  0.00  0.00    +0.078 A 
ATOM     29 CL   LIG    1        8.365  -3.672  -1.843  0.00  0.00    -0.081 Cl
ATOM     30  C   LIG    1        5.727  -3.064  -1.413  0.00  0.00    +0.046 A 
ENDBRANCH  21  23
ENDBRANCH   1  21
BRANCH   5  31
ATOM     31  O   LIG    1       -0.729   2.525  -1.049  0.00  0.00    -0.485 OA
BRANCH  31  32
ATOM     32  C   LIG    1       -1.010   3.783  -1.439  0.00  0.00    +0.201 C 
ATOM     33  C   LIG    1       -1.314   4.794  -0.377  0.00  0.00    +0.204 C 
ATOM     34  O   LIG    1       -2.675   4.911  -0.267  0.00  0.00    -0.376 OA
ATOM     35  C   LIG    1       -3.282   4.301  -1.329  0.00  0.00    +0.163 C 
ATOM     36  C   LIG    1       -2.246   3.906  -2.331  0.00  0.00    +0.075 C 
ENDBRANCH  31  32
ENDBRANCH   5  31
TORSDOF 8
