REMARK  Name = molecules/UMWAUEZOGHNSCH-SECBINFHSA-N.pdb
REMARK                            x       y       z     vdW  Elec       q    Type
REMARK                         _______ _______ _______ _____ _____    ______ ____
ROOT
ATOM      1  C   LIG    1       -0.520   0.454  -2.071  0.00  0.00    +0.014 C 
ATOM      2  C   LIG    1       -0.416   0.625  -0.599  0.00  0.00    +0.035 C 
ENDROOT
BRANCH   2   3
ATOM      3  C   LIG    1        0.947   0.268  -0.155  0.00  0.00    -0.043 A 
ATOM      4  C   LIG    1        1.801   1.189   0.417  0.00  0.00    +0.004 A 
ATOM      5  C   LIG    1        3.068   0.888   0.837  0.00  0.00    +0.000 A 
ATOM      6  C   LIG    1        3.537  -0.402   0.690  0.00  0.00    +0.000 A 
ATOM      7  C   LIG    1        2.711  -1.349   0.122  0.00  0.00    +0.000 A 
ATOM      8  C   LIG    1        1.436  -1.017  -0.293  0.00  0.00    +0.004 A 
ENDBRANCH   2   3
BRANCH   2   9
ATOM      9  C   LIG    1       -1.489  -0.097   0.174  0.00  0.00    +0.017 C 
ATOM     10  C   LIG    1       -1.297   0.178   1.651  0.00  0.00    +0.028 C 
ATOM     11  C   LIG    1       -2.853   0.418  -0.240  0.00  0.00    +0.028 C 
BRANCH   9  12
ATOM     12  N   LIG    1       -1.488  -1.512  -0.036  0.00  0.00    -0.325 NA
ATOM     13  H   LIG    1       -1.362  -2.088   0.800  0.00  0.00    +0.119 HD
ATOM     14  H   LIG    1       -2.184  -1.854  -0.721  0.00  0.00    +0.119 HD
ENDBRANCH   9  12
ENDBRANCH   2   9
TORSDOF 3
