REMARK  Name = molecules/UNAANXDKBXWMLN-MRXNPFEDSA-N.pdb
REMARK                            x       y       z     vdW  Elec       q    Type
REMARK                         _______ _______ _______ _____ _____    ______ ____
ROOT
ATOM      1  C   LIG    1        0.781   0.255   0.549  0.00  0.00    +0.011 C 
ATOM      2  C   LIG    1        0.507  -0.069   1.994  0.00  0.00    +0.013 C 
ATOM      3  C   LIG    1        1.912   0.516   2.295  0.00  0.00    +0.002 C 
ATOM      4  C   LIG    1        1.613   1.435   1.140  0.00  0.00    +0.013 C 
ENDROOT
BRANCH   1   5
ATOM      5  C   LIG    1        1.724  -0.625  -0.136  0.00  0.00    -0.040 A 
ATOM      6  C   LIG    1        2.171  -1.839   0.401  0.00  0.00    +0.005 A 
ATOM      7  C   LIG    1        3.106  -2.625  -0.265  0.00  0.00    +0.020 A 
ATOM      8  C   LIG    1        3.612  -2.241  -1.460  0.00  0.00    +0.041 A 
ATOM      9  C   LIG    1        3.203  -1.064  -2.026  0.00  0.00    +0.020 A 
ATOM     10 CL   LIG    1        4.832  -3.222  -2.304  0.00  0.00    -0.084 Cl
ATOM     11  C   LIG    1        2.272  -0.291  -1.348  0.00  0.00    +0.005 A 
ENDBRANCH   1   5
BRANCH   1  12
ATOM     12  C   LIG    1       -0.352   0.828  -0.269  0.00  0.00    +0.067 C 
BRANCH  12  13
ATOM     13  N   LIG    1       -0.819   2.095   0.171  0.00  0.00    -0.305 NA
ATOM     14  C   LIG    1       -1.954   2.191   1.000  0.00  0.00    +0.104 C 
ATOM     15  C   LIG    1       -1.086   3.013  -0.956  0.00  0.00    +0.104 C 
ENDBRANCH  12  13
BRANCH  12  16
ATOM     16  C   LIG    1       -1.249  -0.081  -0.955  0.00  0.00    +0.022 C 
BRANCH  16  17
ATOM     17  C   LIG    1       -2.467  -0.632  -0.326  0.00  0.00    -0.016 C 
ATOM     18  C   LIG    1       -2.216  -1.489   0.881  0.00  0.00    +0.007 C 
ATOM     19  C   LIG    1       -3.082  -1.575  -1.368  0.00  0.00    +0.007 C 
ENDBRANCH  16  17
ENDBRANCH  12  16
ENDBRANCH   1  12
TORSDOF 5
