REMARK  Name = molecules/UNFWWIHTNXNPBV-WXKVUWSESA-N.pdb
REMARK                            x       y       z     vdW  Elec       q    Type
REMARK                         _______ _______ _______ _____ _____    ______ ____
ROOT
ATOM      1  C   LIG    1       -1.283   0.471   1.062  0.00  0.00    +0.115 C 
ATOM      2  C   LIG    1       -2.583   0.899   0.420  0.00  0.00    +0.153 C 
ATOM      3  C   LIG    1       -2.853   0.317  -0.904  0.00  0.00    +0.115 C 
ATOM      4  C   LIG    1       -1.698  -0.149  -1.699  0.00  0.00    +0.165 C 
ATOM      5  C   LIG    1       -0.564  -0.722  -0.887  0.00  0.00    +0.182 C 
ATOM      6  O   LIG    1        0.438  -1.083  -1.748  0.00  0.00    -0.338 OA
ATOM      7  C   LIG    1        1.664  -1.230  -1.112  0.00  0.00    +0.319 C 
ATOM      8  O   LIG    1        1.556  -2.168  -0.118  0.00  0.00    -0.343 OA
ATOM      9  C   LIG    1        2.719  -2.362   0.606  0.00  0.00    +0.126 C 
ATOM     10  C   LIG    1        2.443  -2.337   2.103  0.00  0.00    +0.038 C 
ATOM     11  C   LIG    1        3.832  -1.420   0.304  0.00  0.00    +0.111 C 
ATOM     12  C   LIG    1        3.366  -0.027   0.079  0.00  0.00    +0.199 C 
ATOM     13  O   LIG    1        4.105   0.882   0.344  0.00  0.00    -0.291 OA
ATOM     14  C   LIG    1        1.991   0.120  -0.467  0.00  0.00    +0.281 C 
ATOM     15  O   LIG    1        1.075   0.250   0.593  0.00  0.00    -0.331 OA
ATOM     16  C   LIG    1       -0.169   0.415   0.073  0.00  0.00    +0.173 C 
ENDROOT
BRANCH   1  17
ATOM     17  N   LIG    1       -0.978   1.228   2.208  0.00  0.00    -0.312 NA
ATOM     18  C   LIG    1        0.074   0.727   3.046  0.00  0.00    +0.101 C 
ATOM     19  H   LIG    1       -0.794   2.238   2.022  0.00  0.00    +0.122 HD
ENDBRANCH   1  17
BRANCH   3  20
ATOM     20  N   LIG    1       -3.647   1.196  -1.760  0.00  0.00    -0.312 NA
ATOM     21  C   LIG    1       -3.002   2.433  -2.073  0.00  0.00    +0.101 C 
ATOM     22  H   LIG    1       -3.756   0.657  -2.668  0.00  0.00    +0.122 HD
ENDBRANCH   3  20
BRANCH   2  23
ATOM     23  O   LIG    1       -2.612   2.292   0.456  0.00  0.00    -0.389 OA
ATOM     24  H   LIG    1       -3.407   2.663   0.895  0.00  0.00    +0.210 HD
ENDBRANCH   2  23
BRANCH  14  25
ATOM     25  O   LIG    1        1.855   1.155  -1.375  0.00  0.00    -0.355 OA
ATOM     26  H   LIG    1        2.167   0.877  -2.268  0.00  0.00    +0.213 HD
ENDBRANCH  14  25
BRANCH   4  27
ATOM     27  O   LIG    1       -2.065  -1.113  -2.638  0.00  0.00    -0.387 OA
ATOM     28  H   LIG    1       -1.321  -1.365  -3.236  0.00  0.00    +0.210 HD
ENDBRANCH   4  27
TORSDOF 5
