REMARK  Name = molecules/UOCJDOLVGGIYIQ-IIYDPXPESA-N.pdb
REMARK                            x       y       z     vdW  Elec       q    Type
REMARK                         _______ _______ _______ _____ _____    ______ ____
ROOT
ATOM      1  CA  LIG    1        2.421   0.879  -1.586  0.00  0.00    +0.123 C 
ATOM      2  C   LIG    1        3.072   1.470  -0.604  0.00  0.00    -0.021 C 
ATOM      3  C   LIG    1        2.614   1.248   0.817  0.00  0.00    +0.104 C 
ATOM      4  S   LIG    1        0.847   1.269   1.024  0.00  0.00    -0.131 S 
ATOM      5  C   LIG    1        0.149   0.545  -0.461  0.00  0.00    +0.169 C 
ATOM      6  CA  LIG    1       -0.317  -0.875  -0.244  0.00  0.00    +0.191 C 
ATOM      7  C   LIG    1        0.559  -1.109  -1.437  0.00  0.00    +0.244 C 
ATOM      8  O   LIG    1        0.604  -2.066  -2.245  0.00  0.00    -0.273 OA
ATOM      9  N   LIG    1        1.252   0.089  -1.287  0.00  0.00    -0.249 N 
ENDROOT
BRANCH   6  10
ATOM     10  N   LIG    1       -1.679  -1.109  -0.632  0.00  0.00    -0.300 N 
ATOM     11  C   LIG    1       -2.559  -1.934   0.068  0.00  0.00    +0.235 C 
ATOM     12  O   LIG    1       -2.134  -2.535   1.123  0.00  0.00    -0.274 OA
ATOM     13  H   LIG    1       -1.998  -0.617  -1.494  0.00  0.00    +0.150 HD
BRANCH  11  14
ATOM     14  CA  LIG    1       -3.965  -2.234  -0.234  0.00  0.00    +0.168 C 
BRANCH  14  15
ATOM     15  C   LIG    1       -4.786  -2.344   1.012  0.00  0.00    -0.022 A 
ATOM     16  C   LIG    1       -4.937  -3.532   1.684  0.00  0.00    +0.009 A 
ATOM     17  C   LIG    1       -5.670  -3.691   2.833  0.00  0.00    +0.046 A 
ATOM     18  C   LIG    1       -6.301  -2.597   3.356  0.00  0.00    +0.117 A 
ATOM     19  C   LIG    1       -6.184  -1.366   2.717  0.00  0.00    +0.046 A 
ATOM     20  C   LIG    1       -5.438  -1.236   1.562  0.00  0.00    +0.009 A 
BRANCH  18  21
ATOM     21  O   LIG    1       -7.059  -2.679   4.514  0.00  0.00    -0.507 OA
ATOM     22  H   LIG    1       -8.062  -2.895   4.413  0.00  0.00    +0.292 HD
ENDBRANCH  18  21
ENDBRANCH  14  15
BRANCH  14  23
ATOM     23  N   LIG    1       -4.577  -1.461  -1.260  0.00  0.00    -0.316 NA
ATOM     24  H1  LIG    1       -5.281  -2.025  -1.814  0.00  0.00    +0.119 HD
ATOM     25  H2  LIG    1       -3.882  -1.121  -1.956  0.00  0.00    +0.119 HD
ENDBRANCH  14  23
ENDBRANCH  11  14
ENDBRANCH   6  10
BRANCH   1  26
ATOM     26  C   LIG    1        2.846   1.026  -2.962  0.00  0.00    +0.351 C 
ATOM     27  OXT LIG    1        3.808   1.685  -3.385  0.00  0.00    -0.244 OA
BRANCH  26  28
ATOM     28  O   LIG    1        2.131   0.371  -4.009  0.00  0.00    -0.476 OA
ATOM     29  H   LIG    1        1.138   0.346  -4.029  0.00  0.00    +0.295 HD
ENDBRANCH  26  28
ENDBRANCH   1  26
BRANCH   2  30
ATOM     30  C   LIG    1        4.243   2.313  -0.762  0.00  0.00    +0.109 C 
BRANCH  30  31
ATOM     31  S   LIG    1        5.699   1.615   0.108  0.00  0.00    -0.098 S 
BRANCH  31  32
ATOM     32  C   LIG    1        7.104   2.696  -0.093  0.00  0.00    +0.139 A 
ATOM     33  N   LIG    1        8.334   2.459   0.396  0.00  0.00    -0.123 NA
ATOM     34  N   LIG    1        9.152   3.472   0.055  0.00  0.00    -0.067 NA
ATOM     35  N   LIG    1        8.461   4.370  -0.655  0.00  0.00    -0.264 N 
ATOM     36  H   LIG    1        8.850   5.271  -1.057  0.00  0.00    +0.190 HD
ATOM     37  C   LIG    1        7.214   3.900  -0.746  0.00  0.00    +0.141 A 
ENDBRANCH  31  32
ENDBRANCH  30  31
ENDBRANCH   2  30
TORSDOF 10
