REMARK  Name = molecules/UORJNBVJVRLXMQ-UHFFFAOYSA-N.pdb
REMARK                            x       y       z     vdW  Elec       q    Type
REMARK                         _______ _______ _______ _____ _____    ______ ____
ROOT
ATOM      1  C   LIG    1       -0.157  -0.072   0.250  0.00  0.00    +0.129 C 
ATOM      2  C   LIG    1       -0.886   1.124   0.733  0.00  0.00    +0.236 C 
ATOM      3  O   LIG    1       -1.518   1.078   1.819  0.00  0.00    -0.274 OA
ATOM      4  N   LIG    1       -0.900   2.341   0.009  0.00  0.00    -0.239 N 
ATOM      5  H   LIG    1       -1.178   3.244   0.494  0.00  0.00    +0.159 HD
ATOM      6  C   LIG    1       -0.535   2.308  -1.361  0.00  0.00    +0.312 C 
ATOM      7  N   LIG    1       -0.166   1.088  -1.989  0.00  0.00    -0.239 N 
ATOM      8  H   LIG    1        0.108   1.054  -3.012  0.00  0.00    +0.159 HD
ATOM      9  O   LIG    1       -0.532   3.370  -2.053  0.00  0.00    -0.252 OA
ATOM     10  C   LIG    1       -0.172  -0.097  -1.210  0.00  0.00    +0.236 C 
ATOM     11  O   LIG    1       -0.190  -1.205  -1.839  0.00  0.00    -0.274 OA
ENDROOT
BRANCH   1  12
ATOM     12  C   LIG    1       -0.889  -1.280   0.820  0.00  0.00    +0.007 C 
ATOM     13  C   LIG    1       -0.170  -2.572   0.579  0.00  0.00    +0.009 C 
ATOM     14  C   LIG    1       -2.276  -1.365   0.259  0.00  0.00    +0.009 C 
ENDBRANCH   1  12
BRANCH   1  15
ATOM     15  C   LIG    1        1.234  -0.011   0.829  0.00  0.00    +0.052 C 
BRANCH  15  16
ATOM     16  C   LIG    1        2.017   1.131   0.333  0.00  0.00    -0.033 C 
ATOM     17  C   LIG    1        3.139   0.928  -0.319  0.00  0.00    +0.004 C 
ENDBRANCH  15  16
ENDBRANCH   1  15
TORSDOF 3
