REMARK  Name = molecules/UOZODPSAJZTQNH-LSWIJEOBSA-N.pdb
REMARK                            x       y       z     vdW  Elec       q    Type
REMARK                         _______ _______ _______ _____ _____    ______ ____
ROOT
ATOM      1  C   LIG    1       -3.289   0.367   1.503  0.00  0.00    +0.169 C 
ATOM      2  C   LIG    1       -4.285   0.480   2.604  0.00  0.00    +0.084 C 
ATOM      3  C   LIG    1       -4.292   1.760   3.360  0.00  0.00    +0.042 C 
ATOM      4  C   LIG    1       -2.926   2.318   3.524  0.00  0.00    +0.084 C 
ATOM      5  C   LIG    1       -1.866   1.254   3.348  0.00  0.00    +0.163 C 
ATOM      6  C   LIG    1       -1.905   0.805   1.909  0.00  0.00    +0.182 C 
ENDROOT
BRANCH   4   7
ATOM      7  N   LIG    1       -2.732   2.893   4.861  0.00  0.00    -0.325 NA
ATOM      8  H   LIG    1       -3.265   2.378   5.590  0.00  0.00    +0.119 HD
ATOM      9  H   LIG    1       -2.982   3.906   4.821  0.00  0.00    +0.119 HD
ENDBRANCH   4   7
BRANCH   2  10
ATOM     10  N   LIG    1       -4.013  -0.603   3.565  0.00  0.00    -0.325 NA
ATOM     11  H   LIG    1       -4.685  -0.482   4.341  0.00  0.00    +0.119 HD
ATOM     12  H   LIG    1       -4.023  -1.530   3.120  0.00  0.00    +0.119 HD
ENDBRANCH   2  10
BRANCH   5  13
ATOM     13  O   LIG    1       -0.644   1.915   3.628  0.00  0.00    -0.388 OA
ATOM     14  H   LIG    1       -0.651   2.792   3.198  0.00  0.00    +0.210 HD
ENDBRANCH   5  13
BRANCH   6  15
ATOM     15  O   LIG    1       -1.028  -0.220   1.611  0.00  0.00    -0.340 OA
BRANCH  15  16
ATOM     16  C   LIG    1       -0.053   0.121   0.713  0.00  0.00    +0.282 C 
ATOM     17  C   LIG    1        1.300  -0.178   1.365  0.00  0.00    +0.202 C 
ATOM     18  C   LIG    1        2.147  -0.676   0.214  0.00  0.00    +0.186 C 
ATOM     19  C   LIG    1        1.214  -0.639  -0.948  0.00  0.00    +0.178 C 
ATOM     20  O   LIG    1       -0.065  -0.693  -0.437  0.00  0.00    -0.341 OA
BRANCH  17  21
ATOM     21  O   LIG    1        1.791   1.006   1.915  0.00  0.00    -0.384 OA
ATOM     22  H   LIG    1        2.238   1.499   1.165  0.00  0.00    +0.210 HD
ENDBRANCH  17  21
BRANCH  18  23
ATOM     23  O   LIG    1        3.223   0.184   0.087  0.00  0.00    -0.341 OA
BRANCH  23  24
ATOM     24  C   LIG    1        4.462  -0.415   0.266  0.00  0.00    +0.270 C 
ATOM     25  C   LIG    1        5.294   0.266   1.317  0.00  0.00    +0.139 C 
ATOM     26  C   LIG    1        6.666  -0.414   1.293  0.00  0.00    +0.167 C 
ATOM     27  C   LIG    1        7.287  -0.346  -0.068  0.00  0.00    +0.175 C 
ATOM     28  C   LIG    1        6.308  -0.942  -1.052  0.00  0.00    +0.166 C 
ATOM     29  O   LIG    1        5.127  -0.254  -0.954  0.00  0.00    -0.343 OA
BRANCH  25  30
ATOM     30  N   LIG    1        5.515   1.663   1.050  0.00  0.00    -0.321 NA
ATOM     31  H   LIG    1        6.198   1.999   1.783  0.00  0.00    +0.119 HD
ATOM     32  H   LIG    1        4.657   2.244   1.170  0.00  0.00    +0.119 HD
ENDBRANCH  25  30
BRANCH  26  33
ATOM     33  O   LIG    1        6.518  -1.763   1.631  0.00  0.00    -0.387 OA
ATOM     34  H   LIG    1        7.123  -2.312   1.078  0.00  0.00    +0.210 HD
ENDBRANCH  26  33
BRANCH  27  35
ATOM     35  O   LIG    1        7.591   0.962  -0.448  0.00  0.00    -0.387 OA
ATOM     36  H   LIG    1        8.106   1.341   0.332  0.00  0.00    +0.210 HD
ENDBRANCH  27  35
BRANCH  28  37
ATOM     37  C   LIG    1        6.836  -0.678  -2.467  0.00  0.00    +0.112 C 
BRANCH  37  38
ATOM     38  N   LIG    1        7.046   0.756  -2.648  0.00  0.00    -0.328 NA
ATOM     39  H   LIG    1        6.187   1.222  -3.026  0.00  0.00    +0.118 HD
ATOM     40  H   LIG    1        7.795   0.868  -3.363  0.00  0.00    +0.118 HD
ENDBRANCH  37  38
ENDBRANCH  28  37
ENDBRANCH  23  24
ENDBRANCH  18  23
BRANCH  19  41
ATOM     41  C   LIG    1        1.399  -1.810  -1.889  0.00  0.00    +0.190 C 
BRANCH  41  42
ATOM     42  O   LIG    1        1.221  -3.031  -1.242  0.00  0.00    -0.392 OA
ATOM     43  H   LIG    1        1.923  -3.662  -1.482  0.00  0.00    +0.210 HD
ENDBRANCH  41  42
ENDBRANCH  19  41
ENDBRANCH  15  16
ENDBRANCH   6  15
BRANCH   1  44
ATOM     44  O   LIG    1       -3.647   1.067   0.357  0.00  0.00    -0.342 OA
BRANCH  44  45
ATOM     45  C   LIG    1       -3.881   0.260  -0.736  0.00  0.00    +0.270 C 
ATOM     46  O   LIG    1       -5.241   0.426  -1.078  0.00  0.00    -0.342 OA
ATOM     47  C   LIG    1       -5.642  -0.460  -2.044  0.00  0.00    +0.178 C 
ATOM     48  C   LIG    1       -4.553  -1.309  -2.614  0.00  0.00    +0.176 C 
ATOM     49  C   LIG    1       -3.406  -0.421  -3.025  0.00  0.00    +0.167 C 
ATOM     50  C   LIG    1       -3.096   0.629  -1.962  0.00  0.00    +0.139 C 
BRANCH  50  51
ATOM     51  N   LIG    1       -3.654   1.880  -2.464  0.00  0.00    -0.321 NA
ATOM     52  H   LIG    1       -3.119   2.703  -2.165  0.00  0.00    +0.119 HD
ATOM     53  H   LIG    1       -3.901   1.830  -3.462  0.00  0.00    +0.119 HD
ENDBRANCH  50  51
BRANCH  49  54
ATOM     54  O   LIG    1       -2.308  -1.233  -3.282  0.00  0.00    -0.387 OA
ATOM     55  H   LIG    1       -2.396  -2.125  -2.824  0.00  0.00    +0.210 HD
ENDBRANCH  49  54
BRANCH  48  56
ATOM     56  O   LIG    1       -5.057  -1.876  -3.808  0.00  0.00    -0.387 OA
ATOM     57  H   LIG    1       -5.104  -2.854  -3.763  0.00  0.00    +0.210 HD
ENDBRANCH  48  56
BRANCH  47  58
ATOM     58  C   LIG    1       -6.781  -1.280  -1.477  0.00  0.00    +0.190 C 
BRANCH  58  59
ATOM     59  O   LIG    1       -7.271  -2.213  -2.368  0.00  0.00    -0.392 OA
ATOM     60  H   LIG    1       -8.098  -2.586  -2.004  0.00  0.00    +0.210 HD
ENDBRANCH  58  59
ENDBRANCH  47  58
ENDBRANCH  44  45
ENDBRANCH   1  44
TORSDOF 22
