REMARK  Name = molecules/UPSPUYADGBWSHF-UHFFFAOYSA-N.pdb
REMARK                            x       y       z     vdW  Elec       q    Type
REMARK                         _______ _______ _______ _____ _____    ______ ____
ROOT
ATOM      1  C   LIG    1        0.724  -0.124  -0.335  0.00  0.00    +0.090 A 
ATOM      2  C   LIG    1        0.665   1.095   0.303  0.00  0.00    +0.031 A 
ATOM      3  C   LIG    1        1.937   1.448   0.768  0.00  0.00    +0.024 A 
ATOM      4  C   LIG    1        2.746   0.389   0.379  0.00  0.00    +0.030 A 
ATOM      5  N   LIG    1        1.999  -0.522  -0.270  0.00  0.00    -0.344 N 
ATOM      6  C   LIG    1        2.510  -1.757  -0.818  0.00  0.00    +0.149 C 
ENDROOT
BRANCH   1   7
ATOM      7  C   LIG    1       -0.420  -0.776  -0.951  0.00  0.00    +0.209 C 
ATOM      8  O   LIG    1       -0.256  -1.579  -1.879  0.00  0.00    -0.285 OA
BRANCH   7   9
ATOM      9  C   LIG    1       -1.788  -0.518  -0.511  0.00  0.00    +0.024 A 
ATOM     10  C   LIG    1       -2.097  -0.161   0.785  0.00  0.00    +0.012 A 
ATOM     11  C   LIG    1       -3.395   0.068   1.198  0.00  0.00    +0.004 A 
ATOM     12  C   LIG    1       -4.456  -0.053   0.326  0.00  0.00    -0.050 A 
ATOM     13  C   LIG    1       -5.868   0.189   0.759  0.00  0.00    +0.044 C 
ATOM     14  C   LIG    1       -4.163  -0.410  -0.972  0.00  0.00    +0.004 A 
ATOM     15  C   LIG    1       -2.857  -0.638  -1.380  0.00  0.00    +0.012 A 
ENDBRANCH   7   9
ENDBRANCH   1   7
BRANCH   4  16
ATOM     16  C   LIG    1        4.208   0.348   0.676  0.00  0.00    +0.173 C 
BRANCH  16  17
ATOM     17  C   LIG    1        4.979   0.974  -0.414  0.00  0.00    +0.311 C 
ATOM     18  O   LIG    1        4.438   1.465  -1.444  0.00  0.00    -0.251 OA
BRANCH  17  19
ATOM     19  O   LIG    1        6.369   1.024  -0.296  0.00  0.00    -0.480 OA
ATOM     20  H   LIG    1        6.837   1.640   0.357  0.00  0.00    +0.295 HD
ENDBRANCH  17  19
ENDBRANCH  16  17
ENDBRANCH   4  16
TORSDOF 5
