REMARK  Name = molecules/UPZFHUODAYGHDZ-RMKNXTFCSA-N.pdb
REMARK                            x       y       z     vdW  Elec       q    Type
REMARK                         _______ _______ _______ _____ _____    ______ ____
ROOT
ATOM      1  C   LIG    1       -1.635  -1.440  -0.096  0.00  0.00    +0.201 C 
ATOM      2  O   LIG    1       -1.601  -2.678   0.470  0.00  0.00    -0.213 OA
ENDROOT
BRANCH   1   3
ATOM      3  C   LIG    1       -0.320  -0.870  -0.179  0.00  0.00    -0.004 A 
ATOM      4  C   LIG    1        0.588  -1.128   0.879  0.00  0.00    +0.010 A 
ATOM      5  C   LIG    1        1.818  -0.555   0.875  0.00  0.00    +0.046 A 
ATOM      6  C   LIG    1        2.267   0.287  -0.113  0.00  0.00    +0.120 A 
ATOM      7  C   LIG    1        1.385   0.533  -1.137  0.00  0.00    +0.046 A 
ATOM      8  C   LIG    1        0.123  -0.035  -1.166  0.00  0.00    +0.010 A 
BRANCH   6   9
ATOM      9  O   LIG    1        3.523   0.844  -0.070  0.00  0.00    -0.495 OA
ATOM     10  C   LIG    1        4.461   0.634   0.938  0.00  0.00    +0.277 C 
ENDBRANCH   6   9
ENDBRANCH   1   3
BRANCH   1  11
ATOM     11  C   LIG    1       -2.943  -1.114  -0.429  0.00  0.00    +0.045 C 
ATOM     12 BR   LIG    1       -4.224  -2.656  -0.469  0.00  0.00    -0.051 Br
ATOM     13  C   LIG    1       -3.561  -0.026  -0.749  0.00  0.00    +0.105 C 
BRANCH  13  14
ATOM     14  C   LIG    1       -2.971   1.265  -0.814  0.00  0.00    +0.330 C 
ATOM     15  O   LIG    1       -1.858   1.644  -0.513  0.00  0.00    -0.246 OA
BRANCH  14  16
ATOM     16  O   LIG    1       -3.865   2.287  -1.307  0.00  0.00    -0.478 OA
ATOM     17  H   LIG    1       -4.641   2.474  -0.671  0.00  0.00    +0.295 HD
ENDBRANCH  14  16
ENDBRANCH  13  14
ENDBRANCH   1  11
TORSDOF 5
