REMARK  Name = molecules/UQCNKQCJZOAFTQ-ISWURRPUSA-N.pdb
REMARK                            x       y       z     vdW  Elec       q    Type
REMARK                         _______ _______ _______ _____ _____    ______ ____
ROOT
ATOM      1  C   LIG    1        0.614   1.381   0.958  0.00  0.00    -0.038 A 
ATOM      2  C   LIG    1        1.546   2.176   1.587  0.00  0.00    +0.008 A 
ATOM      3  C   LIG    1        2.884   2.163   1.166  0.00  0.00    +0.049 A 
ATOM      4  C   LIG    1        3.265   1.341   0.109  0.00  0.00    +0.159 A 
ATOM      5  C   LIG    1        2.333   0.529  -0.538  0.00  0.00    +0.167 A 
ATOM      6  O   LIG    1        2.341  -0.381  -1.582  0.00  0.00    -0.476 OA
ATOM      7  C   LIG    1        1.165  -1.210  -1.483  0.00  0.00    +0.252 C 
ATOM      8  C   LIG    1        1.440  -2.421  -0.687  0.00  0.00    +0.175 C 
ATOM      9  C   LIG    1        0.882  -2.711   0.648  0.00  0.00    +0.081 C 
ATOM     10  C   LIG    1        0.092  -1.588   1.237  0.00  0.00    +0.045 C 
ATOM     11  C   LIG    1       -0.726  -0.929   0.185  0.00  0.00    +0.096 C 
ATOM     12  C   LIG    1       -1.569   0.211   0.750  0.00  0.00    +0.093 C 
ATOM     13  N   LIG    1       -2.469   0.721  -0.249  0.00  0.00    -0.299 NA
ATOM     14  C   LIG    1       -3.849   0.525   0.039  0.00  0.00    +0.105 C 
ATOM     15  C   LIG    1       -2.101   0.450  -1.593  0.00  0.00    +0.085 C 
ATOM     16  C   LIG    1       -0.632   0.519  -1.815  0.00  0.00    +0.034 C 
ATOM     17  O   LIG    1        2.191  -3.255  -1.171  0.00  0.00    -0.293 OA
ATOM     18  C   LIG    1        0.166  -0.308  -0.846  0.00  0.00    +0.075 C 
ATOM     19  C   LIG    1       -0.799   1.330   1.335  0.00  0.00    +0.057 C 
ATOM     20  C   LIG    1        1.064   0.604  -0.068  0.00  0.00    +0.014 A 
ENDROOT
BRANCH   4  21
ATOM     21  O   LIG    1        4.579   1.296  -0.341  0.00  0.00    -0.503 OA
ATOM     22  H   LIG    1        5.317   1.849   0.069  0.00  0.00    +0.292 HD
ENDBRANCH   4  21
BRANCH  11  23
ATOM     23  O   LIG    1       -1.608  -1.868  -0.339  0.00  0.00    -0.386 OA
ATOM     24  H   LIG    1       -1.134  -2.342  -1.079  0.00  0.00    +0.210 HD
ENDBRANCH  11  23
TORSDOF 2
