REMARK  Name = molecules/UQLLWWBDSUHNEB-CZUORRHYSA-N.pdb
REMARK                            x       y       z     vdW  Elec       q    Type
REMARK                         _______ _______ _______ _____ _____    ______ ____
ROOT
ATOM      1  CA  LIG    1       -2.911   0.421  -1.256  0.00  0.00    +0.125 C 
ATOM      2  C   LIG    1       -3.181   1.038  -0.123  0.00  0.00    +0.006 C 
ATOM      3  C   LIG    1       -2.217   1.275   0.996  0.00  0.00    +0.107 C 
ATOM      4  S   LIG    1       -0.579   0.633   0.793  0.00  0.00    -0.131 S 
ATOM      5  C   LIG    1       -0.739  -0.673  -0.477  0.00  0.00    +0.169 C 
ATOM      6  CA  LIG    1        0.448  -0.723  -1.406  0.00  0.00    +0.191 C 
ATOM      7  C   LIG    1       -0.582  -0.348  -2.423  0.00  0.00    +0.244 C 
ATOM      8  O   LIG    1       -0.498  -0.293  -3.671  0.00  0.00    -0.273 OA
ATOM      9  N   LIG    1       -1.584  -0.106  -1.483  0.00  0.00    -0.249 N 
ENDROOT
BRANCH   6  10
ATOM     10  N   LIG    1        1.400   0.336  -1.272  0.00  0.00    -0.301 N 
ATOM     11  H   LIG    1        1.073   1.318  -1.196  0.00  0.00    +0.150 HD
ATOM     12  C   LIG    1        2.786   0.075  -1.238  0.00  0.00    +0.224 C 
ATOM     13  O   LIG    1        3.208  -1.116  -1.326  0.00  0.00    -0.275 OA
BRANCH  12  14
ATOM     14  C   LIG    1        3.757   1.174  -1.101  0.00  0.00    +0.170 C 
BRANCH  14  15
ATOM     15  S   LIG    1        5.470   0.667  -1.065  0.00  0.00    -0.116 S 
BRANCH  15  16
ATOM     16  C   LIG    1        5.940  -0.266   0.353  0.00  0.00    +0.011 A 
ATOM     17  C   LIG    1        6.381   0.415   1.462  0.00  0.00    +0.034 A 
ATOM     18  C   LIG    1        6.764  -0.267   2.591  0.00  0.00    +0.112 A 
ATOM     19  N   LIG    1        6.698  -1.603   2.585  0.00  0.00    -0.263 NA
ATOM     20  C   LIG    1        6.273  -2.300   1.522  0.00  0.00    +0.112 A 
ATOM     21  C   LIG    1        5.886  -1.635   0.383  0.00  0.00    +0.034 A 
ENDBRANCH  15  16
ENDBRANCH  14  15
ENDBRANCH  12  14
ENDBRANCH   6  10
BRANCH   1  22
ATOM     22  C   LIG    1       -3.908   0.234  -2.304  0.00  0.00    +0.351 C 
ATOM     23  O   LIG    1       -3.535  -0.371  -3.374  0.00  0.00    -0.244 OA
BRANCH  22  24
ATOM     24  OXT LIG    1       -5.218   0.611  -2.334  0.00  0.00    -0.476 OA
ATOM     25  HXT LIG    1       -5.600   1.330  -2.959  0.00  0.00    +0.295 HD
ENDBRANCH  22  24
ENDBRANCH   1  22
BRANCH   2  26
ATOM     26  C   LIG    1       -4.542   1.599   0.177  0.00  0.00    +0.266 C 
BRANCH  26  27
ATOM     27  O   LIG    1       -5.042   0.951   1.355  0.00  0.00    -0.460 OA
BRANCH  27  28
ATOM     28  C   LIG    1       -5.240  -0.410   1.453  0.00  0.00    +0.304 C 
ATOM     29  C   LIG    1       -5.762  -1.053   2.690  0.00  0.00    +0.136 C 
ATOM     30  O   LIG    1       -4.963  -1.115   0.445  0.00  0.00    -0.251 OA
ENDBRANCH  27  28
ENDBRANCH  26  27
ENDBRANCH   2  26
TORSDOF 9
