REMARK  Name = molecules/URCIJDUOBBSMII-HZPDHXFCSA-N.pdb
REMARK                            x       y       z     vdW  Elec       q    Type
REMARK                         _______ _______ _______ _____ _____    ______ ____
ROOT
ATOM      1  N   LIG    1        0.266  -0.920  -0.192  0.00  0.00    -0.308 NA
ATOM      2  H   LIG    1       -0.127  -1.862  -0.361  0.00  0.00    +0.123 HD
ENDROOT
BRANCH   1   3
ATOM      3  C   LIG    1        1.631  -0.808   0.045  0.00  0.00    +0.055 C 
ATOM      4  C   LIG    1        2.015  -0.493   1.478  0.00  0.00    +0.024 C 
BRANCH   3   5
ATOM      5  C   LIG    1        2.399   0.094  -0.926  0.00  0.00    +0.053 C 
BRANCH   5   6
ATOM      6  C   LIG    1        3.813   0.073  -0.502  0.00  0.00    -0.046 A 
ATOM      7  C   LIG    1        4.378   0.941   0.394  0.00  0.00    +0.004 A 
ATOM      8  C   LIG    1        5.715   0.888   0.769  0.00  0.00    +0.000 A 
ATOM      9  C   LIG    1        6.534  -0.077   0.226  0.00  0.00    +0.000 A 
ATOM     10  C   LIG    1        5.987  -0.957  -0.674  0.00  0.00    +0.000 A 
ATOM     11  C   LIG    1        4.656  -0.898  -1.042  0.00  0.00    +0.004 A 
ENDBRANCH   5   6
ENDBRANCH   3   5
ENDBRANCH   1   3
BRANCH   1  12
ATOM     12  C   LIG    1       -0.601   0.156  -0.131  0.00  0.00    +0.088 C 
ATOM     13  C   LIG    1       -0.595   1.055   1.045  0.00  0.00    +0.027 C 
BRANCH  12  14
ATOM     14  C   LIG    1       -2.034  -0.378  -0.297  0.00  0.00    +0.247 C 
BRANCH  14  15
ATOM     15  O   LIG    1       -2.960   0.701  -0.237  0.00  0.00    -0.490 OA
BRANCH  15  16
ATOM     16  C   LIG    1       -4.330   0.462  -0.360  0.00  0.00    +0.121 A 
ATOM     17  C   LIG    1       -5.243   1.500  -0.304  0.00  0.00    +0.045 A 
ATOM     18  C   LIG    1       -6.599   1.300  -0.422  0.00  0.00    +0.004 A 
ATOM     19  C   LIG    1       -7.109   0.035  -0.603  0.00  0.00    +0.000 A 
ATOM     20  C   LIG    1       -6.198  -1.015  -0.661  0.00  0.00    +0.004 A 
ATOM     21  C   LIG    1       -4.840  -0.805  -0.542  0.00  0.00    +0.045 A 
ENDBRANCH  15  16
ENDBRANCH  14  15
ENDBRANCH  12  14
ENDBRANCH   1  12
TORSDOF 7
