REMARK  Name = molecules/UREBDLICKHMUKA-CXSFZGCWSA-N.pdb
REMARK                            x       y       z     vdW  Elec       q    Type
REMARK                         _______ _______ _______ _____ _____    ______ ____
ROOT
ATOM      1  C   LIG    1        3.620  -1.757  -0.559  0.00  0.00    -0.009 C 
ATOM      2  C   LIG    1        2.933  -0.644   0.063  0.00  0.00    +0.044 C 
ATOM      3  C   LIG    1        3.122  -0.864   1.575  0.00  0.00    +0.023 C 
ATOM      4  C   LIG    1        3.607   0.638  -0.189  0.00  0.00    -0.053 C 
ATOM      5  C   LIG    1        2.963   1.908   0.324  0.00  0.00    +0.032 C 
ATOM      6  C   LIG    1        1.627   1.927  -0.418  0.00  0.00    +0.011 C 
ATOM      7  C   LIG    1        0.854   0.740   0.179  0.00  0.00    +0.034 C 
ATOM      8  C   LIG    1       -0.517   0.789  -0.360  0.00  0.00    +0.005 C 
ATOM      9  C   LIG    1       -1.379  -0.242   0.317  0.00  0.00    +0.010 C 
ATOM     10  C   LIG    1       -1.523  -0.017   1.779  0.00  0.00    +0.015 C 
ATOM     11  C   LIG    1       -0.803  -1.581  -0.034  0.00  0.00    +0.044 C 
ATOM     12  C   LIG    1        0.658  -1.692   0.242  0.00  0.00    +0.154 C 
ATOM     13  C   LIG    1       -2.676   0.051  -0.399  0.00  0.00    +0.134 C 
ATOM     14  C   LIG    1       -2.727   1.562  -0.262  0.00  0.00    +0.026 C 
ATOM     15  C   LIG    1       -3.406   2.171  -1.479  0.00  0.00    +0.011 C 
ATOM     16  C   LIG    1       -1.292   2.045  -0.153  0.00  0.00    +0.011 C 
ATOM     17  C   LIG    1        4.698   0.747  -0.876  0.00  0.00    +0.051 C 
ATOM     18  C   LIG    1        5.384  -0.400  -1.490  0.00  0.00    +0.179 C 
ATOM     19  O   LIG    1        6.431  -0.290  -2.146  0.00  0.00    -0.288 OA
ATOM     20  C   LIG    1        1.474  -0.574  -0.292  0.00  0.00    +0.153 C 
ATOM     21  F   LIG    1        1.347  -0.581  -1.663  0.00  0.00    -0.238 F 
ATOM     22  C   LIG    1        4.732  -1.675  -1.264  0.00  0.00    +0.047 C 
ENDROOT
BRANCH  12  23
ATOM     23  O   LIG    1        0.825  -1.947   1.601  0.00  0.00    -0.389 OA
ATOM     24  H   LIG    1       -0.002  -2.188   2.058  0.00  0.00    +0.210 HD
ENDBRANCH  12  23
BRANCH  13  25
ATOM     25  C   LIG    1       -3.857  -0.564   0.187  0.00  0.00    +0.190 C 
ATOM     26  O   LIG    1       -4.109  -0.422   1.363  0.00  0.00    -0.292 OA
BRANCH  25  27
ATOM     27  C   LIG    1       -4.788  -1.380  -0.628  0.00  0.00    +0.233 C 
BRANCH  27  28
ATOM     28  O   LIG    1       -5.852  -1.875   0.125  0.00  0.00    -0.387 OA
ATOM     29  H   LIG    1       -6.679  -1.343  -0.018  0.00  0.00    +0.210 HD
ENDBRANCH  27  28
ENDBRANCH  25  27
ENDBRANCH  13  25
BRANCH  13  30
ATOM     30  O   LIG    1       -2.537  -0.204  -1.765  0.00  0.00    -0.380 OA
ATOM     31  H   LIG    1       -2.919  -1.066  -2.034  0.00  0.00    +0.211 HD
ENDBRANCH  13  30
TORSDOF 5
