REMARK  Name = molecules/URJQOOISAKEBKW-UHFFFAOYSA-N.pdb
REMARK                            x       y       z     vdW  Elec       q    Type
REMARK                         _______ _______ _______ _____ _____    ______ ____
ROOT
ATOM      1  C   LIG    1       -1.032   0.511   0.332  0.00  0.00    +0.209 A 
ATOM      2  C   LIG    1       -2.025   1.486   0.357  0.00  0.00    +0.311 A 
ATOM      3  O   LIG    1       -3.124   1.219   0.953  0.00  0.00    -0.262 OA
ATOM      4  N   LIG    1       -1.921   2.690  -0.197  0.00  0.00    -0.230 N 
ATOM      5  C   LIG    1       -3.042   3.639  -0.104  0.00  0.00    +0.176 C 
ATOM      6  N   LIG    1       -0.808   2.993  -0.814  0.00  0.00    -0.175 NA
ATOM      7  C   LIG    1        0.197   2.094  -0.876  0.00  0.00    +0.160 A 
ATOM      8  C   LIG    1        0.141   0.829  -0.317  0.00  0.00    +0.098 A 
ENDROOT
BRANCH   8   9
ATOM      9  N   LIG    1        1.240  -0.090  -0.375  0.00  0.00    -0.321 N 
ATOM     10  C   LIG    1        1.404  -1.138   0.609  0.00  0.00    +0.133 C 
ATOM     11  C   LIG    1        2.858  -1.425   0.951  0.00  0.00    +0.178 C 
ATOM     12  O   LIG    1        3.628  -1.520  -0.173  0.00  0.00    -0.377 OA
ATOM     13  C   LIG    1        3.645  -0.335  -0.911  0.00  0.00    +0.178 C 
ATOM     14  C   LIG    1        2.252  -0.002  -1.407  0.00  0.00    +0.133 C 
ENDBRANCH   8   9
BRANCH   1  15
ATOM     15  O   LIG    1       -1.258  -0.710   0.943  0.00  0.00    -0.485 OA
BRANCH  15  16
ATOM     16  C   LIG    1       -1.849  -1.772   0.177  0.00  0.00    +0.226 C 
ATOM     17  C   LIG    1       -2.017  -3.009   0.999  0.00  0.00    +0.048 C 
ENDBRANCH  15  16
ENDBRANCH   1  15
TORSDOF 3
