REMARK  Name = molecules/URLJMZWTXZTZRR-UHFFFAOYSA-N.pdb
REMARK                            x       y       z     vdW  Elec       q    Type
REMARK                         _______ _______ _______ _____ _____    ______ ____
ROOT
ATOM      1  C   LIG    1        2.266   0.621  -0.564  0.00  0.00    +0.000 C 
ENDROOT
BRANCH   1   2
ATOM      2  C   LIG    1        3.687   0.296  -0.917  0.00  0.00    +0.002 C 
BRANCH   2   3
ATOM      3  C   LIG    1        4.634   1.289  -0.331  0.00  0.00    +0.030 C 
BRANCH   3   4
ATOM      4  C   LIG    1        6.039   0.847  -0.794  0.00  0.00    +0.196 C 
BRANCH   4   5
ATOM      5  O   LIG    1        6.223  -0.438  -0.291  0.00  0.00    -0.216 OA
BRANCH   5   6
ATOM      6  S   LIG    1        7.768  -0.926  -0.800  0.00  0.00    +0.207 S 
ATOM      7  O   LIG    1        8.710   0.250  -0.720  0.00  0.00    -0.118 OA
ATOM      8  O   LIG    1        7.640  -1.453  -2.179  0.00  0.00    -0.118 OA
BRANCH   6   9
ATOM      9  O   LIG    1        8.297  -2.078   0.298  0.00  0.00    -0.231 OA
ATOM     10  H   LIG    1        8.689  -1.588   1.064  0.00  0.00    +0.247 HD
ENDBRANCH   6   9
ENDBRANCH   5   6
ENDBRANCH   4   5
ENDBRANCH   3   4
ENDBRANCH   2   3
ENDBRANCH   1   2
BRANCH   1  11
ATOM     11  C   LIG    1        2.075   0.603   0.923  0.00  0.00    +0.000 C 
BRANCH  11  12
ATOM     12  C   LIG    1        0.640   0.933   1.246  0.00  0.00    +0.000 C 
BRANCH  12  13
ATOM     13  C   LIG    1       -0.263  -0.068   0.636  0.00  0.00    -0.000 C 
BRANCH  13  14
ATOM     14  C   LIG    1       -1.737   0.208   0.953  0.00  0.00    -0.000 C 
BRANCH  14  15
ATOM     15  C   LIG    1       -2.490  -0.889   0.264  0.00  0.00    -0.000 C 
BRANCH  15  16
ATOM     16  C   LIG    1       -3.998  -0.840   0.451  0.00  0.00    -0.000 C 
BRANCH  16  17
ATOM     17  C   LIG    1       -4.506   0.444  -0.112  0.00  0.00    -0.000 C 
BRANCH  17  18
ATOM     18  C   LIG    1       -5.969   0.614   0.069  0.00  0.00    -0.000 C 
BRANCH  18  19
ATOM     19  C   LIG    1       -6.863  -0.377  -0.538  0.00  0.00    -0.003 C 
ATOM     20  C   LIG    1       -6.818  -1.781  -0.074  0.00  0.00    +0.004 C 
ENDBRANCH  18  19
ENDBRANCH  17  18
ENDBRANCH  16  17
ENDBRANCH  15  16
ENDBRANCH  14  15
ENDBRANCH  13  14
ENDBRANCH  12  13
ENDBRANCH  11  12
ENDBRANCH   1  11
TORSDOF 15
