REMARK  Name = molecules/URWAJWIAIPFPJE-YFMIWBNJSA-N.pdb
REMARK                            x       y       z     vdW  Elec       q    Type
REMARK                         _______ _______ _______ _____ _____    ______ ____
ROOT
ATOM      1  C   LIG    1        0.635   0.607  -0.590  0.00  0.00    +0.169 C 
ATOM      2  C   LIG    1       -0.549  -0.256  -0.210  0.00  0.00    +0.175 C 
ATOM      3  C   LIG    1       -1.709   0.531   0.311  0.00  0.00    +0.170 C 
ATOM      4  C   LIG    1       -1.539   2.028   0.041  0.00  0.00    +0.084 C 
ATOM      5  C   LIG    1       -1.119   2.150  -1.394  0.00  0.00    +0.042 C 
ATOM      6  C   LIG    1        0.330   1.727  -1.502  0.00  0.00    +0.084 C 
ENDROOT
BRANCH   4   7
ATOM      7  N   LIG    1       -0.655   2.660   0.974  0.00  0.00    -0.325 NA
ATOM      8  H   LIG    1       -0.594   2.125   1.866  0.00  0.00    +0.119 HD
ATOM      9  H   LIG    1       -0.958   3.639   1.224  0.00  0.00    +0.119 HD
ENDBRANCH   4   7
BRANCH   6  10
ATOM     10  N   LIG    1        1.124   2.921  -1.173  0.00  0.00    -0.325 NA
ATOM     11  H   LIG    1        1.422   2.820  -0.182  0.00  0.00    +0.119 HD
ATOM     12  H   LIG    1        1.933   3.021  -1.805  0.00  0.00    +0.119 HD
ENDBRANCH   6  10
BRANCH   2  13
ATOM     13  O   LIG    1       -0.095  -1.160   0.751  0.00  0.00    -0.387 OA
ATOM     14  H   LIG    1        0.173  -2.020   0.392  0.00  0.00    +0.210 HD
ENDBRANCH   2  13
BRANCH   1  15
ATOM     15  O   LIG    1        1.621  -0.262  -1.017  0.00  0.00    -0.341 OA
BRANCH  15  16
ATOM     16  C   LIG    1        2.717  -0.349  -0.213  0.00  0.00    +0.281 C 
ATOM     17  O   LIG    1        2.917  -1.591   0.367  0.00  0.00    -0.346 OA
ATOM     18  C   LIG    1        3.966  -1.596   1.267  0.00  0.00    +0.199 C 
ATOM     19  C   LIG    1        5.287  -1.169   0.683  0.00  0.00    +0.104 C 
ATOM     20  C   LIG    1        6.102  -2.471   0.563  0.00  0.00    +0.045 C 
ATOM     21  C   LIG    1        5.199  -0.528  -0.660  0.00  0.00    +0.121 C 
ATOM     22  C   LIG    1        3.917   0.183  -0.919  0.00  0.00    +0.190 C 
BRANCH  21  23
ATOM     23  N   LIG    1        6.368   0.232  -1.015  0.00  0.00    -0.311 NA
ATOM     24  C   LIG    1        6.585   1.447  -0.329  0.00  0.00    +0.101 C 
ATOM     25  H   LIG    1        6.613   0.212  -2.021  0.00  0.00    +0.122 HD
ENDBRANCH  21  23
BRANCH  19  26
ATOM     26  O   LIG    1        6.002  -0.345   1.540  0.00  0.00    -0.385 OA
ATOM     27  H   LIG    1        6.942  -0.610   1.526  0.00  0.00    +0.210 HD
ENDBRANCH  19  26
BRANCH  22  28
ATOM     28  O   LIG    1        3.691   0.169  -2.317  0.00  0.00    -0.385 OA
ATOM     29  H   LIG    1        2.757   0.037  -2.540  0.00  0.00    +0.210 HD
ENDBRANCH  22  28
ENDBRANCH  15  16
ENDBRANCH   1  15
BRANCH   3  30
ATOM     30  O   LIG    1       -2.838   0.149  -0.413  0.00  0.00    -0.333 OA
BRANCH  30  31
ATOM     31  C   LIG    1       -3.830  -0.380   0.405  0.00  0.00    +0.324 C 
ATOM     32  O   LIG    1       -5.028   0.369   0.301  0.00  0.00    -0.465 OA
ATOM     33  C   LIG    1       -6.284  -0.132   0.494  0.00  0.00    +0.111 C 
ATOM     34  C   LIG    1       -6.471  -1.419   0.604  0.00  0.00    +0.017 C 
ATOM     35  C   LIG    1       -5.351  -2.365   0.524  0.00  0.00    +0.055 C 
ATOM     36  C   LIG    1       -4.140  -1.766  -0.121  0.00  0.00    +0.124 C 
BRANCH  36  37
ATOM     37  N   LIG    1       -4.316  -1.628  -1.575  0.00  0.00    -0.322 NA
ATOM     38  H   LIG    1       -5.282  -1.309  -1.811  0.00  0.00    +0.119 HD
ATOM     39  H   LIG    1       -3.675  -0.864  -1.931  0.00  0.00    +0.119 HD
ENDBRANCH  36  37
BRANCH  33  40
ATOM     40  C   LIG    1       -7.473   0.789   0.584  0.00  0.00    +0.152 C 
BRANCH  40  41
ATOM     41  N   LIG    1       -8.677   0.040   0.787  0.00  0.00    -0.324 NA
ATOM     42  H   LIG    1       -8.704  -0.503   1.655  0.00  0.00    +0.119 HD
ATOM     43  H   LIG    1       -8.915  -0.562  -0.033  0.00  0.00    +0.119 HD
ENDBRANCH  40  41
ENDBRANCH  33  40
ENDBRANCH  30  31
ENDBRANCH   3  30
TORSDOF 13
