REMARK  Name = molecules/USKHCLAXJXCWMO-OAHLLOKOSA-N.pdb
REMARK                            x       y       z     vdW  Elec       q    Type
REMARK                         _______ _______ _______ _____ _____    ______ ____
ROOT
ATOM      1  C   LIG    1       -2.585  -1.690  -0.610  0.00  0.00    +0.021 C 
ATOM      2  C   LIG    1       -3.859  -1.204  -0.389  0.00  0.00    -0.014 C 
ATOM      3  C   LIG    1       -4.007   0.130  -0.100  0.00  0.00    +0.013 C 
ATOM      4  C   LIG    1       -2.881   0.940  -0.042  0.00  0.00    +0.034 C 
ATOM      5  S   LIG    1       -3.154   2.670   0.357  0.00  0.00    -0.086 S 
ATOM      6  C   LIG    1       -1.551   3.417   0.389  0.00  0.00    +0.034 A 
ATOM      7  C   LIG    1       -1.508   4.751   0.679  0.00  0.00    +0.017 A 
ATOM      8  C   LIG    1       -0.319   5.446   0.720  0.00  0.00    +0.001 A 
ATOM      9  C   LIG    1        0.840   4.755   0.458  0.00  0.00    +0.002 A 
ATOM     10  C   LIG    1        0.768   3.389   0.164  0.00  0.00    +0.024 A 
ATOM     11  C   LIG    1       -0.428   2.688   0.123  0.00  0.00    +0.048 A 
ATOM     12  N   LIG    1       -0.420   1.305  -0.185  0.00  0.00    -0.298 N 
ATOM     13  C   LIG    1       -1.609   0.490  -0.257  0.00  0.00    +0.045 C 
ATOM     14  C   LIG    1       -1.484  -0.867  -0.546  0.00  0.00    +0.009 C 
ENDROOT
BRANCH   1  16
ATOM     15  C   LIG    1       -2.527  -3.368  -2.416  0.00  0.00    +0.005 C 
ATOM     16  C   LIG    1       -2.442  -3.154  -0.923  0.00  0.00    +0.013 C 
ENDBRANCH   1  16
BRANCH  12  17
ATOM     17  C   LIG    1        0.830   0.636  -0.420  0.00  0.00    +0.115 C 
BRANCH  17  18
ATOM     18  C   LIG    1        1.481   0.025   0.764  0.00  0.00    +0.018 C 
ATOM     19  C   LIG    1        1.832   0.912   1.896  0.00  0.00    +0.010 C 
BRANCH  18  20
ATOM     20  C   LIG    1        2.778  -0.703   0.379  0.00  0.00    +0.088 C 
BRANCH  20  21
ATOM     21  N   LIG    1        2.587  -1.760  -0.552  0.00  0.00    -0.308 NA
ATOM     22  C   LIG    1        1.878  -2.844   0.059  0.00  0.00    +0.104 C 
ATOM     23  C   LIG    1        3.898  -2.209  -0.980  0.00  0.00    +0.104 C 
ENDBRANCH  20  21
ENDBRANCH  18  20
ENDBRANCH  17  18
ENDBRANCH  12  17
TORSDOF 5
