REMARK  Name = molecules/USNPULRDBDVJAO-FXCAAIILSA-O.pdb
REMARK                            x       y       z     vdW  Elec       q    Type
REMARK                         _______ _______ _______ _____ _____    ______ ____
ROOT
ATOM      1  C   LIG    1        0.815   0.373  -0.663  0.00  0.00    +0.339 C 
ATOM      2  O   LIG    1       -0.055  -0.356   0.168  0.00  0.00    -0.331 OA
ATOM      3  C   LIG    1       -1.403   0.034  -0.142  0.00  0.00    +0.179 C 
ATOM      4  C   LIG    1       -1.769  -0.811  -1.341  0.00  0.00    +0.177 C 
ATOM      5  C   LIG    1       -0.477  -1.153  -2.127  0.00  0.00    +0.180 C 
ATOM      6  C   LIG    1        0.382   0.076  -2.098  0.00  0.00    +0.214 C 
ENDROOT
BRANCH   6   7
ATOM      7  O   LIG    1       -0.376   1.154  -2.537  0.00  0.00    -0.383 OA
ATOM      8  H   LIG    1       -0.018   2.031  -2.253  0.00  0.00    +0.210 HD
ENDBRANCH   6   7
BRANCH   4   9
ATOM      9  O   LIG    1       -2.599  -0.175  -2.241  0.00  0.00    -0.386 OA
ATOM     10  H   LIG    1       -2.759   0.746  -1.898  0.00  0.00    +0.210 HD
ENDBRANCH   4   9
BRANCH   5  11
ATOM     11  O   LIG    1        0.106  -2.246  -1.506  0.00  0.00    -0.386 OA
ATOM     12  H   LIG    1       -0.029  -3.035  -2.066  0.00  0.00    +0.210 HD
ENDBRANCH   5  11
BRANCH   3  13
ATOM     13  C   LIG    1       -2.208  -0.258   1.072  0.00  0.00    +0.197 C 
BRANCH  13  14
ATOM     14  O   LIG    1       -3.493   0.065   1.143  0.00  0.00    -0.346 OA
BRANCH  14  15
ATOM     15  C   LIG    1       -4.480  -0.415   0.379  0.00  0.00    +0.282 C 
ATOM     16  C   LIG    1       -5.608  -0.995   1.269  0.00  0.00    +0.201 C 
ATOM     17  C   LIG    1       -6.763  -1.412   0.373  0.00  0.00    +0.179 C 
ATOM     18  C   LIG    1       -7.274  -0.161  -0.317  0.00  0.00    +0.174 C 
ATOM     19  C   LIG    1       -6.308   0.977  -0.055  0.00  0.00    +0.149 C 
ATOM     20  C   LIG    1       -6.719   2.111  -0.983  0.00  0.00    +0.041 C 
ATOM     21  O   LIG    1       -5.015   0.662  -0.338  0.00  0.00    -0.343 OA
BRANCH  17  22
ATOM     22  O   LIG    1       -6.355  -2.299  -0.607  0.00  0.00    -0.386 OA
ATOM     23  H   LIG    1       -7.128  -2.426  -1.218  0.00  0.00    +0.210 HD
ENDBRANCH  17  22
BRANCH  18  24
ATOM     24  O   LIG    1       -8.482   0.178   0.290  0.00  0.00    -0.387 OA
ATOM     25  H   LIG    1       -8.331   0.083   1.268  0.00  0.00    +0.210 HD
ENDBRANCH  18  24
BRANCH  16  26
ATOM     26  O   LIG    1       -5.157  -2.143   1.906  0.00  0.00    -0.384 OA
ATOM     27  H   LIG    1       -5.078  -2.911   1.315  0.00  0.00    +0.210 HD
ENDBRANCH  16  26
ENDBRANCH  14  15
ENDBRANCH  13  14
ENDBRANCH   3  13
BRANCH   1  28
ATOM     28  O   LIG    1        2.094  -0.064  -0.404  0.00  0.00    -0.457 OA
BRANCH  28  29
ATOM     29  C   LIG    1        3.171   0.652   0.017  0.00  0.00    +0.167 C 
ATOM     30  C   LIG    1        3.080   2.040   0.237  0.00  0.00    +0.060 C 
ATOM     31  C   LIG    1        4.181   2.724   0.658  0.00  0.00    +0.037 C 
ATOM     32  C   LIG    1        4.134   4.105   0.890  0.00  0.00    +0.153 C 
ATOM     33  C   LIG    1        5.280   4.763   1.317  0.00  0.00    +0.061 C 
ATOM     34  C   LIG    1        6.470   4.091   1.522  0.00  0.00    +0.120 C 
ATOM     35  C   LIG    1        6.485   2.713   1.282  0.00  0.00    +0.091 C 
ATOM     36  C   LIG    1        5.364   2.048   0.860  0.00  0.00    +0.139 C 
ATOM     37  O   LIG    1        5.409   0.783   0.648  0.00  0.00    -0.451 OA
ATOM     38  C   LIG    1        4.371   0.036   0.234  0.00  0.00    +0.177 C 
BRANCH  38  39
ATOM     39  C   LIG    1        4.598  -1.389   0.044  0.00  0.00    +0.025 A 
ATOM     40  C   LIG    1        5.880  -1.917   0.247  0.00  0.00    +0.060 A 
ATOM     41  C   LIG    1        6.202  -3.249   0.107  0.00  0.00    +0.159 A 
ATOM     42  C   LIG    1        5.221  -4.148  -0.255  0.00  0.00    +0.158 A 
ATOM     43  C   LIG    1        3.959  -3.659  -0.460  0.00  0.00    +0.050 A 
ATOM     44  C   LIG    1        3.648  -2.298  -0.313  0.00  0.00    +0.015 A 
BRANCH  42  45
ATOM     45  O   LIG    1        5.542  -5.481  -0.396  0.00  0.00    -0.503 OA
ATOM     46  H   LIG    1        6.422  -5.922  -0.268  0.00  0.00    +0.292 HD
ENDBRANCH  42  45
BRANCH  41  47
ATOM     47  O   LIG    1        7.497  -3.671   0.330  0.00  0.00    -0.503 OA
ATOM     48  H   LIG    1        7.808  -4.612   0.250  0.00  0.00    +0.292 HD
ENDBRANCH  41  47
ENDBRANCH  38  39
BRANCH  32  49
ATOM     49  O   LIG    1        2.962   4.801   0.694  0.00  0.00    -0.376 OA
ATOM     50  H   LIG    1        2.083   4.471   0.397  0.00  0.00    +0.211 HD
ENDBRANCH  32  49
BRANCH  34  51
ATOM     51  O   LIG    1        7.629   4.683   1.942  0.00  0.00    -0.507 OA
ATOM     52  H   LIG    1        7.924   4.804   2.901  0.00  0.00    +0.292 HD
ENDBRANCH  34  51
ENDBRANCH  28  29
ENDBRANCH   1  28
TORSDOF 16
