REMARK  Name = molecules/USSIQXCVUWKGNF-QGZVFWFLSA-N.pdb
REMARK                            x       y       z     vdW  Elec       q    Type
REMARK                         _______ _______ _______ _____ _____    ______ ____
ROOT
ATOM      1  C   LIG    1       -0.580   0.171   0.358  0.00  0.00    +0.080 C 
ENDROOT
BRANCH   1   2
ATOM      2  C   LIG    1       -0.950   1.418  -0.284  0.00  0.00    -0.030 A 
ATOM      3  C   LIG    1       -1.282   2.577   0.363  0.00  0.00    +0.005 A 
ATOM      4  C   LIG    1       -1.633   3.747  -0.274  0.00  0.00    +0.000 A 
ATOM      5  C   LIG    1       -1.660   3.785  -1.646  0.00  0.00    +0.000 A 
ATOM      6  C   LIG    1       -1.339   2.662  -2.347  0.00  0.00    +0.000 A 
ATOM      7  C   LIG    1       -0.988   1.495  -1.684  0.00  0.00    +0.005 A 
ENDBRANCH   1   2
BRANCH   1   8
ATOM      8  C   LIG    1       -1.085  -0.947  -0.545  0.00  0.00    -0.030 A 
ATOM      9  C   LIG    1       -0.359  -2.063  -0.755  0.00  0.00    +0.005 A 
ATOM     10  C   LIG    1       -0.871  -3.043  -1.589  0.00  0.00    +0.000 A 
ATOM     11  C   LIG    1       -2.101  -2.892  -2.201  0.00  0.00    +0.000 A 
ATOM     12  C   LIG    1       -2.830  -1.748  -1.977  0.00  0.00    +0.000 A 
ATOM     13  C   LIG    1       -2.325  -0.771  -1.148  0.00  0.00    +0.005 A 
ENDBRANCH   1   8
BRANCH   1  14
ATOM     14  C   LIG    1       -1.431  -0.066   1.598  0.00  0.00    +0.148 C 
ATOM     15  O   LIG    1       -2.337   0.700   1.810  0.00  0.00    -0.296 OA
BRANCH  14  16
ATOM     16  C   LIG    1       -1.198  -1.174   2.532  0.00  0.00    +0.072 C 
ATOM     17  C   LIG    1       -2.234  -1.160   3.652  0.00  0.00    +0.012 C 
ENDBRANCH  14  16
ENDBRANCH   1  14
BRANCH   1  18
ATOM     18  C   LIG    1        0.807  -0.047   0.782  0.00  0.00    +0.042 C 
BRANCH  18  19
ATOM     19  C   LIG    1        1.916   0.111  -0.174  0.00  0.00    +0.055 C 
ATOM     20  C   LIG    1        2.051   1.604  -0.531  0.00  0.00    +0.024 C 
BRANCH  19  21
ATOM     21  N   LIG    1        3.183  -0.197   0.485  0.00  0.00    -0.306 NA
ATOM     22  C   LIG    1        3.357  -1.581   0.797  0.00  0.00    +0.104 C 
ATOM     23  C   LIG    1        4.300   0.188  -0.370  0.00  0.00    +0.104 C 
ENDBRANCH  19  21
ENDBRANCH  18  19
ENDBRANCH   1  18
TORSDOF 7
