REMARK  Name = molecules/USUZGMWDZDXMDG-CYBMUJFWSA-N.pdb
REMARK                            x       y       z     vdW  Elec       q    Type
REMARK                         _______ _______ _______ _____ _____    ______ ____
ROOT
ATOM      1  C   LIG    1        0.975  -0.343  -0.940  0.00  0.00    +0.010 A 
ATOM      2  C   LIG    1        0.757   0.279   0.257  0.00  0.00    +0.011 A 
ATOM      3  C   LIG    1        1.811   0.490   1.101  0.00  0.00    +0.130 A 
ATOM      4  F   LIG    1        1.644   1.100   2.294  0.00  0.00    -0.205 F 
ATOM      5  C   LIG    1        3.098   0.085   0.766  0.00  0.00    +0.057 A 
ATOM      6  C   LIG    1        3.305  -0.540  -0.442  0.00  0.00    +0.055 A 
ATOM      7  C   LIG    1        2.251  -0.752  -1.288  0.00  0.00    +0.019 A 
ENDROOT
BRANCH   2   8
ATOM      8  C   LIG    1       -0.610   0.720   0.635  0.00  0.00    +0.121 C 
ATOM      9  N   LIG    1       -1.548  -0.398   0.588  0.00  0.00    -0.326 N 
ATOM     10  C   LIG    1       -1.658  -1.689   0.866  0.00  0.00    +0.200 A 
ATOM     11  N   LIG    1       -2.893  -2.097   0.543  0.00  0.00    -0.244 NA
ATOM     12  C   LIG    1       -3.568  -1.057   0.057  0.00  0.00    +0.133 A 
ATOM     13  C   LIG    1       -2.714   0.034   0.082  0.00  0.00    +0.039 A 
ATOM     14  C   LIG    1       -2.635   1.499  -0.248  0.00  0.00    +0.057 C 
ATOM     15  C   LIG    1       -1.143   1.684  -0.414  0.00  0.00    +0.036 C 
ENDBRANCH   2   8
BRANCH   6  16
ATOM     16  C   LIG    1        4.637  -0.959  -0.788  0.00  0.00    +0.099 C 
ATOM     17  N   LIG    1        5.703  -1.315  -1.062  0.00  0.00    -0.191 NA
ENDBRANCH   6  16
TORSDOF 2
