REMARK  Name = molecules/UTEFBSAVJNEPTR-RGEXLXHISA-N.pdb
REMARK                            x       y       z     vdW  Elec       q    Type
REMARK                         _______ _______ _______ _____ _____    ______ ____
ROOT
ATOM      1  O   LIG    1        0.392  -2.673   1.731  0.00  0.00    -0.237 OA
ATOM      2  C   LIG    1        0.506  -1.769   0.878  0.00  0.00    +0.385 C 
ATOM      3  C   LIG    1        1.704  -1.023   0.452  0.00  0.00    +0.276 C 
ATOM      4  C   LIG    1        2.905  -1.218   0.940  0.00  0.00    +0.134 C 
ATOM      5  N   LIG    1        1.253  -0.101  -0.556  0.00  0.00    -0.035 NA
ATOM      6  C   LIG    1        0.012  -0.193  -0.777  0.00  0.00    +0.323 C 
ATOM      7  C   LIG    1       -0.773   0.607  -1.747  0.00  0.00    +0.271 C 
ATOM      8  N   LIG    1       -1.977   1.162  -1.142  0.00  0.00    -0.270 NA
ATOM      9  C   LIG    1       -2.945   0.587  -0.451  0.00  0.00    +0.079 C 
ATOM     10  C   LIG    1       -2.948  -0.832  -0.175  0.00  0.00    +0.048 A 
ATOM     11  C   LIG    1       -1.883  -1.664   0.140  0.00  0.00    +0.139 A 
ATOM     12  C   LIG    1       -1.983  -2.996   0.418  0.00  0.00    +0.052 A 
ATOM     13  C   LIG    1       -3.269  -3.513   0.364  0.00  0.00    +0.037 A 
ATOM     14  C   LIG    1       -4.362  -2.727   0.050  0.00  0.00    +0.127 A 
ATOM     15  C   LIG    1       -4.211  -1.388  -0.223  0.00  0.00    +0.046 A 
ATOM     16  N   LIG    1       -0.524  -1.228   0.094  0.00  0.00    -0.116 N 
ENDROOT
BRANCH   4  17
ATOM     17  N   LIG    1        3.991  -0.423   0.439  0.00  0.00    -0.330 N 
ATOM     18  C   LIG    1        3.965   1.032   0.495  0.00  0.00    +0.120 C 
ATOM     19  C   LIG    1        5.199   1.433   1.300  0.00  0.00    +0.103 C 
ATOM     20  N   LIG    1        6.363   1.000   0.613  0.00  0.00    -0.302 NA
ATOM     21  C   LIG    1        6.442  -0.375   0.302  0.00  0.00    +0.103 C 
ATOM     22  C   LIG    1        6.872   1.899  -0.371  0.00  0.00    +0.105 C 
ATOM     23  C   LIG    1        5.176  -1.016  -0.150  0.00  0.00    +0.120 C 
ENDBRANCH   4  17
BRANCH   9  24
ATOM     24  C   LIG    1       -4.051   1.387   0.006  0.00  0.00    +0.019 A 
ATOM     25  C   LIG    1       -4.924   0.989   0.976  0.00  0.00    +0.011 A 
ATOM     26  C   LIG    1       -5.910   1.836   1.514  0.00  0.00    +0.001 A 
ATOM     27  C   LIG    1       -6.017   3.134   1.060  0.00  0.00    +0.001 A 
ATOM     28  C   LIG    1       -5.128   3.527   0.082  0.00  0.00    +0.020 A 
ATOM     29  C   LIG    1       -4.174   2.716  -0.444  0.00  0.00    +0.050 A 
ATOM     30 CL   LIG    1       -3.060   3.231  -1.680  0.00  0.00    -0.083 Cl
ENDBRANCH   9  24
BRANCH  14  31
ATOM     31  N   LIG    1       -5.682  -3.241  -0.008  0.00  0.00    +0.056 N 
ATOM     32  O   LIG    1       -5.846  -4.449   0.236  0.00  0.00    -0.126 OA
ATOM     33  O   LIG    1       -6.776  -2.485  -0.316  0.00  0.00    -0.126 OA
ENDBRANCH  14  31
TORSDOF 3
