REMARK  Name = molecules/UTNUDOFZCWSZMS-YFHOEESVSA-N.pdb
REMARK                            x       y       z     vdW  Elec       q    Type
REMARK                         _______ _______ _______ _____ _____    ______ ____
ROOT
ATOM      1  N   LIG    1        0.616  -0.528   0.625  0.00  0.00    -0.281 N 
ATOM      2  H   LIG    1        1.108  -1.097   1.231  0.00  0.00    +0.155 HD
ATOM      3  C   LIG    1        1.166   0.417  -0.351  0.00  0.00    +0.262 C 
ATOM      4  O   LIG    1        0.321   1.013  -1.024  0.00  0.00    -0.269 OA
ENDROOT
BRANCH   1   8
ATOM      5  C   LIG    1       -3.592  -0.354   0.092  0.00  0.00    +0.055 A 
ATOM      6  C   LIG    1       -2.867   0.733   0.529  0.00  0.00    +0.014 A 
ATOM      7  C   LIG    1       -1.518   0.654   0.748  0.00  0.00    +0.024 A 
ATOM      8  C   LIG    1       -0.836  -0.543   0.541  0.00  0.00    +0.034 A 
ATOM      9  C   LIG    1       -1.563  -1.644   0.102  0.00  0.00    +0.024 A 
ATOM     10  C   LIG    1       -2.920  -1.547  -0.119  0.00  0.00    +0.014 A 
BRANCH   5  11
ATOM     11  C   LIG    1       -5.056  -0.178  -0.179  0.00  0.00    +0.417 C 
ATOM     12  F   LIG    1       -5.607   0.930   0.365  0.00  0.00    -0.166 F 
ATOM     13  F   LIG    1       -5.746  -1.284   0.269  0.00  0.00    -0.166 F 
ATOM     14  F   LIG    1       -5.098  -0.108  -1.604  0.00  0.00    -0.166 F 
ENDBRANCH   5  11
ENDBRANCH   1   8
BRANCH   3  15
ATOM     15  C   LIG    1        2.565   0.679  -0.537  0.00  0.00    +0.150 C 
ATOM     16  C   LIG    1        3.540   0.157   0.145  0.00  0.00    +0.113 C 
ATOM     17  C   LIG    1        4.973   0.579  -0.212  0.00  0.00    +0.087 C 
BRANCH  16  18
ATOM     18  O   LIG    1        3.290  -0.739   1.156  0.00  0.00    -0.510 OA
ATOM     19  H   LIG    1        3.982  -1.403   1.454  0.00  0.00    +0.292 HD
ENDBRANCH  16  18
BRANCH  15  20
ATOM     20  C   LIG    1        2.931   1.628  -1.608  0.00  0.00    +0.108 C 
ATOM     21  N   LIG    1        3.232   2.388  -2.461  0.00  0.00    -0.191 NA
ENDBRANCH  15  20
ENDBRANCH   3  15
TORSDOF 5
