REMARK  Name = molecules/UTTZVFFEPWFVRY-UHFFFAOYSA-N.pdb
REMARK                            x       y       z     vdW  Elec       q    Type
REMARK                         _______ _______ _______ _____ _____    ______ ____
ROOT
ATOM      1  C   LIG    1       -1.821  -0.554  -0.017  0.00  0.00    +0.120 C 
ENDROOT
BRANCH   1   2
ATOM      2  C   LIG    1       -2.237  -1.919  -0.121  0.00  0.00    -0.029 A 
ATOM      3  C   LIG    1       -3.597  -2.134   0.242  0.00  0.00    +0.005 A 
ATOM      4  C   LIG    1       -4.119  -3.430   0.406  0.00  0.00    +0.000 A 
ATOM      5  C   LIG    1       -3.257  -4.548   0.197  0.00  0.00    +0.000 A 
ATOM      6  C   LIG    1       -2.010  -4.243  -0.167  0.00  0.00    +0.000 A 
ATOM      7  C   LIG    1       -1.474  -3.030  -0.331  0.00  0.00    +0.005 A 
ENDBRANCH   1   2
BRANCH   1   8
ATOM      8  C   LIG    1       -0.393  -0.117   0.318  0.00  0.00    +0.320 C 
ATOM      9  O   LIG    1        0.152   0.687   0.627  0.00  0.00    -0.250 OA
BRANCH   8  10
ATOM     10  O   LIG    1        0.526  -1.364   0.058  0.00  0.00    -0.463 OA
BRANCH  10  11
ATOM     11  C   LIG    1        1.864  -0.974   0.477  0.00  0.00    +0.247 C 
BRANCH  11  12
ATOM     12  C   LIG    1        2.505   0.152  -0.233  0.00  0.00    +0.125 C 
BRANCH  12  13
ATOM     13  N   LIG    1        3.802   0.463   0.289  0.00  0.00    -0.300 NA
BRANCH  13  14
ATOM     14  C   LIG    1        4.731  -0.528   0.538  0.00  0.00    +0.081 C 
ATOM     15  C   LIG    1        5.336  -1.218  -0.672  0.00  0.00    +0.020 C 
ENDBRANCH  13  14
BRANCH  13  16
ATOM     16  C   LIG    1        4.251   1.788   0.146  0.00  0.00    +0.081 C 
ATOM     17  C   LIG    1        4.625   2.285  -1.195  0.00  0.00    +0.020 C 
ENDBRANCH  13  16
ENDBRANCH  12  13
ENDBRANCH  11  12
ENDBRANCH  10  11
ENDBRANCH   8  10
ENDBRANCH   1   8
BRANCH   1  18
ATOM     18  C   LIG    1       -2.610   0.421  -0.015  0.00  0.00    +0.050 C 
BRANCH  18  19
ATOM     19  C   LIG    1       -3.444   1.525  -0.008  0.00  0.00    -0.042 A 
ATOM     20  C   LIG    1       -4.561   1.617   0.783  0.00  0.00    +0.004 A 
ATOM     21  C   LIG    1       -5.379   2.755   0.756  0.00  0.00    +0.000 A 
ATOM     22  C   LIG    1       -5.013   3.782  -0.113  0.00  0.00    +0.000 A 
ATOM     23  C   LIG    1       -3.895   3.700  -0.919  0.00  0.00    +0.000 A 
ATOM     24  C   LIG    1       -3.168   2.571  -0.827  0.00  0.00    +0.004 A 
ENDBRANCH  18  19
ENDBRANCH   1  18
TORSDOF 10
