REMARK  Name = molecules/UULSXYSSHHRCQK-CYBMUJFWSA-N.pdb
REMARK                            x       y       z     vdW  Elec       q    Type
REMARK                         _______ _______ _______ _____ _____    ______ ____
ROOT
ATOM      1  C   LIG    1       -1.466   0.346  -0.787  0.00  0.00    -0.034 A 
ATOM      2  C   LIG    1       -0.926  -0.408   0.235  0.00  0.00    +0.005 A 
ATOM      3  C   LIG    1        0.408  -0.766   0.291  0.00  0.00    +0.004 A 
ATOM      4  C   LIG    1        1.252  -0.362  -0.709  0.00  0.00    -0.047 A 
ATOM      5  C   LIG    1        0.739   0.399  -1.754  0.00  0.00    +0.004 A 
ATOM      6  C   LIG    1       -0.602   0.743  -1.783  0.00  0.00    +0.005 A 
ENDROOT
BRANCH   1   7
ATOM      7  C   LIG    1       -2.902   0.718  -0.822  0.00  0.00    +0.127 C 
BRANCH   7   8
ATOM      8  C   LIG    1       -3.291   1.555   0.320  0.00  0.00    +0.312 C 
ATOM      9  O   LIG    1       -3.767   2.713   0.186  0.00  0.00    -0.250 OA
BRANCH   8  10
ATOM     10  O   LIG    1       -3.160   1.122   1.651  0.00  0.00    -0.480 OA
ATOM     11  H   LIG    1       -3.878   1.300   2.343  0.00  0.00    +0.295 HD
ENDBRANCH   8  10
ENDBRANCH   7   8
BRANCH   7  12
ATOM     12  C   LIG    1       -3.806  -0.468  -1.045  0.00  0.00    +0.016 C 
ATOM     13  C   LIG    1       -3.893  -1.429   0.083  0.00  0.00    +0.005 C 
ENDBRANCH   7  12
ENDBRANCH   1   7
BRANCH   4  14
ATOM     14  C   LIG    1        2.699  -0.684  -0.757  0.00  0.00    +0.038 C 
BRANCH  14  15
ATOM     15  C   LIG    1        3.537   0.365  -0.062  0.00  0.00    -0.013 C 
ATOM     16  C   LIG    1        3.109   0.449   1.395  0.00  0.00    +0.007 C 
ATOM     17  C   LIG    1        4.976  -0.108  -0.084  0.00  0.00    +0.007 C 
ENDBRANCH  14  15
ENDBRANCH   4  14
TORSDOF 6
