REMARK  Name = molecules/UUOJIACWOAYWEZ-SFHVURJKSA-N.pdb
REMARK                            x       y       z     vdW  Elec       q    Type
REMARK                         _______ _______ _______ _____ _____    ______ ____
ROOT
ATOM      1  C   LIG    1       -0.706   0.282  -1.297  0.00  0.00    +0.228 C 
ENDROOT
BRANCH   1   2
ATOM      2  C   LIG    1        0.715   0.056  -1.716  0.00  0.00    +0.275 C 
BRANCH   2   3
ATOM      3  O   LIG    1        1.606  -0.091  -0.655  0.00  0.00    -0.488 OA
BRANCH   3   4
ATOM      4  C   LIG    1        2.954  -0.308  -0.974  0.00  0.00    +0.130 A 
ATOM      5  C   LIG    1        3.872  -0.461   0.040  0.00  0.00    +0.042 A 
ATOM      6  C   LIG    1        3.757  -0.447   1.415  0.00  0.00    +0.034 A 
ATOM      7  C   LIG    1        5.026  -0.655   1.934  0.00  0.00    +0.014 A 
ATOM      8  C   LIG    1        5.449  -0.728   3.349  0.00  0.00    +0.063 C 
ATOM      9  N   LIG    1        5.870  -0.788   0.894  0.00  0.00    -0.358 N 
ATOM     10  H   LIG    1        6.904  -0.956   0.948  0.00  0.00    +0.166 HD
ATOM     11  C   LIG    1        5.206  -0.676  -0.278  0.00  0.00    +0.050 A 
ATOM     12  C   LIG    1        5.636  -0.741  -1.586  0.00  0.00    +0.026 A 
ATOM     13  C   LIG    1        4.723  -0.590  -2.604  0.00  0.00    +0.006 A 
ATOM     14  C   LIG    1        3.406  -0.377  -2.274  0.00  0.00    +0.046 A 
ENDBRANCH   3   4
ENDBRANCH   2   3
ENDBRANCH   1   2
BRANCH   1  15
ATOM     15  O   LIG    1       -1.237  -0.765  -0.528  0.00  0.00    -0.453 OA
BRANCH  15  16
ATOM     16  C   LIG    1       -2.302  -1.562  -0.962  0.00  0.00    +0.340 C 
ATOM     17  O   LIG    1       -2.760  -1.278  -2.100  0.00  0.00    -0.245 OA
BRANCH  16  18
ATOM     18  C   LIG    1       -2.818  -2.626  -0.139  0.00  0.00    +0.059 A 
ATOM     19  C   LIG    1       -2.277  -2.883   1.097  0.00  0.00    +0.015 A 
ATOM     20  C   LIG    1       -2.771  -3.908   1.894  0.00  0.00    +0.001 A 
ATOM     21  C   LIG    1       -3.829  -4.668   1.407  0.00  0.00    +0.000 A 
ATOM     22  C   LIG    1       -4.365  -4.419   0.187  0.00  0.00    +0.001 A 
ATOM     23  C   LIG    1       -3.869  -3.396  -0.602  0.00  0.00    +0.015 A 
ENDBRANCH  16  18
ENDBRANCH  15  16
ENDBRANCH   1  15
BRANCH   1  24
ATOM     24  C   LIG    1       -0.925   1.644  -0.664  0.00  0.00    +0.129 C 
BRANCH  24  25
ATOM     25  N   LIG    1       -2.343   1.831  -0.532  0.00  0.00    -0.308 NA
ATOM     26  H   LIG    1       -2.748   1.799  -1.500  0.00  0.00    +0.123 HD
BRANCH  25  27
ATOM     27  C   LIG    1       -2.730   3.081   0.052  0.00  0.00    +0.011 C 
ATOM     28  C   LIG    1       -2.182   3.261   1.450  0.00  0.00    +0.027 C 
ATOM     29  C   LIG    1       -4.241   3.088   0.149  0.00  0.00    +0.027 C 
ATOM     30  C   LIG    1       -2.317   4.281  -0.768  0.00  0.00    +0.027 C 
ENDBRANCH  25  27
ENDBRANCH  24  25
ENDBRANCH   1  24
TORSDOF 9
