REMARK  Name = molecules/UUVIQYKKKBJYJT-ZYUZMQFOSA-N.pdb
REMARK                            x       y       z     vdW  Elec       q    Type
REMARK                         _______ _______ _______ _____ _____    ______ ____
ROOT
ATOM      1  C   LIG    1       -0.349   0.841  -0.069  0.00  0.00    +0.179 C 
ENDROOT
BRANCH   1   2
ATOM      2  O   LIG    1        0.292   1.607   0.883  0.00  0.00    -0.386 OA
ATOM      3  H   LIG    1       -0.307   2.202   1.390  0.00  0.00    +0.210 HD
ENDBRANCH   1   2
BRANCH   1   4
ATOM      4  C   LIG    1       -1.828   1.092  -0.208  0.00  0.00    +0.208 C 
BRANCH   4   5
ATOM      5  C   LIG    1       -2.668   0.675   0.948  0.00  0.00    +0.230 C 
BRANCH   5   6
ATOM      6  O   LIG    1       -2.511  -0.644   1.343  0.00  0.00    -0.236 OA
BRANCH   6   7
ATOM      7  S   LIG    1       -3.472  -1.052   2.635  0.00  0.00    +0.079 S 
ATOM      8  O   LIG    1       -2.687  -1.589   3.798  0.00  0.00    -0.147 OA
ATOM      9  O   LIG    1       -4.250   0.137   3.155  0.00  0.00    -0.147 OA
ATOM     10  C   LIG    1       -4.671  -2.299   2.197  0.00  0.00    +0.228 C 
ENDBRANCH   6   7
ENDBRANCH   5   6
ENDBRANCH   4   5
BRANCH   4  11
ATOM     11  O   LIG    1       -2.044   2.415  -0.584  0.00  0.00    -0.230 OA
BRANCH  11  12
ATOM     12  S   LIG    1       -2.661   2.656  -2.081  0.00  0.00    +0.080 S 
ATOM     13  C   LIG    1       -3.721   4.039  -2.249  0.00  0.00    +0.228 C 
ATOM     14  O   LIG    1       -3.372   1.429  -2.637  0.00  0.00    -0.147 OA
ATOM     15  O   LIG    1       -1.500   2.875  -3.020  0.00  0.00    -0.147 OA
ENDBRANCH  11  12
ENDBRANCH   4  11
ENDBRANCH   1   4
BRANCH   1  16
ATOM     16  C   LIG    1        0.087  -0.582  -0.154  0.00  0.00    +0.179 C 
BRANCH  16  17
ATOM     17  O   LIG    1       -0.059  -1.242   1.038  0.00  0.00    -0.386 OA
ATOM     18  H   LIG    1        0.269  -0.738   1.825  0.00  0.00    +0.210 HD
ENDBRANCH  16  17
BRANCH  16  19
ATOM     19  C   LIG    1        1.524  -0.728  -0.663  0.00  0.00    +0.208 C 
BRANCH  19  20
ATOM     20  C   LIG    1        2.511  -0.259   0.383  0.00  0.00    +0.230 C 
BRANCH  20  21
ATOM     21  O   LIG    1        3.826  -0.498  -0.018  0.00  0.00    -0.236 OA
BRANCH  21  22
ATOM     22  S   LIG    1        4.938   0.003   1.103  0.00  0.00    +0.079 S 
ATOM     23  C   LIG    1        4.678  -0.673   2.709  0.00  0.00    +0.228 C 
ATOM     24  O   LIG    1        4.992   1.511   1.160  0.00  0.00    -0.147 OA
ATOM     25  O   LIG    1        6.300  -0.449   0.635  0.00  0.00    -0.147 OA
ENDBRANCH  21  22
ENDBRANCH  20  21
ENDBRANCH  19  20
BRANCH  19  26
ATOM     26  O   LIG    1        1.736  -2.097  -0.830  0.00  0.00    -0.230 OA
BRANCH  26  27
ATOM     27  S   LIG    1        2.102  -2.487  -2.412  0.00  0.00    +0.080 S 
ATOM     28  O   LIG    1        2.566  -3.916  -2.434  0.00  0.00    -0.147 OA
ATOM     29  C   LIG    1        3.420  -1.491  -3.055  0.00  0.00    +0.228 C 
ATOM     30  O   LIG    1        0.941  -2.371  -3.333  0.00  0.00    -0.147 OA
ENDBRANCH  26  27
ENDBRANCH  19  26
ENDBRANCH  16  19
ENDBRANCH   1  16
TORSDOF 15
