REMARK  Name = molecules/UUVWYPNAQBNQJQ-UHFFFAOYSA-N.pdb
REMARK                            x       y       z     vdW  Elec       q    Type
REMARK                         _______ _______ _______ _____ _____    ______ ____
ROOT
ATOM      1  C   LIG    1       -0.625  -1.169  -0.095  0.00  0.00    +0.223 A 
ATOM      2  N   LIG    1        0.717  -1.200  -0.021  0.00  0.00    -0.181 NA
ATOM      3  C   LIG    1        1.376  -0.030   0.066  0.00  0.00    +0.223 A 
ATOM      4  N   LIG    1        0.749   1.157   0.083  0.00  0.00    -0.181 NA
ATOM      5  C   LIG    1       -0.577   1.180   0.009  0.00  0.00    +0.223 A 
ATOM      6  N   LIG    1       -1.270   0.013  -0.080  0.00  0.00    -0.181 NA
ENDROOT
BRANCH   1   7
ATOM      7  N   LIG    1       -1.449  -2.330  -0.190  0.00  0.00    -0.306 N 
ATOM      8  C   LIG    1       -1.971  -2.864   1.042  0.00  0.00    +0.132 C 
ATOM      9  C   LIG    1       -1.686  -2.873  -1.504  0.00  0.00    +0.132 C 
ENDBRANCH   1   7
BRANCH   3  10
ATOM     10  N   LIG    1        2.796  -0.106   0.143  0.00  0.00    -0.306 N 
ATOM     11  C   LIG    1        3.524   1.150   0.254  0.00  0.00    +0.132 C 
ATOM     12  C   LIG    1        3.515  -1.350   0.118  0.00  0.00    +0.132 C 
ENDBRANCH   3  10
BRANCH   5  13
ATOM     13  N   LIG    1       -1.359   2.361   0.024  0.00  0.00    -0.306 N 
ATOM     14  C   LIG    1       -1.818   2.937   1.255  0.00  0.00    +0.132 C 
ATOM     15  C   LIG    1       -1.687   2.975  -1.234  0.00  0.00    +0.132 C 
ENDBRANCH   5  13
TORSDOF 3
