REMARK  Name = molecules/UUZPPAMZDFLUHD-VUJLHGSVSA-N.pdb
REMARK                            x       y       z     vdW  Elec       q    Type
REMARK                         _______ _______ _______ _____ _____    ______ ____
ROOT
ATOM      1  O   LIG    1        6.566  -2.989   2.719  0.00  0.00    -0.286 OA
ATOM      2  C   LIG    1        6.361  -2.117   1.829  0.00  0.00    +0.205 A 
ATOM      3  C   LIG    1        5.053  -1.844   1.500  0.00  0.00    +0.068 A 
ATOM      4  C   LIG    1        4.017  -2.507   2.129  0.00  0.00    +0.057 A 
ATOM      5  C   LIG    1        2.732  -2.181   1.747  0.00  0.00    +0.164 A 
ATOM      6  F   LIG    1        1.648  -2.797   2.327  0.00  0.00    -0.202 F 
ATOM      7  C   LIG    1        2.527  -1.222   0.769  0.00  0.00    +0.159 A 
ATOM      8  N   LIG    1        3.570  -0.583   0.165  0.00  0.00    -0.211 NA
ATOM      9  C   LIG    1        4.829  -0.887   0.523  0.00  0.00    +0.151 A 
ATOM     10  N   LIG    1        5.842  -0.240  -0.091  0.00  0.00    -0.297 N 
ATOM     11  C   LIG    1        7.109  -0.537   0.261  0.00  0.00    +0.112 A 
ATOM     12  C   LIG    1        7.428  -1.465   1.212  0.00  0.00    +0.122 A 
ENDROOT
BRANCH  10  13
ATOM     13  C   LIG    1        5.646   0.744  -1.093  0.00  0.00    +0.083 A 
ATOM     14  C   LIG    1        4.946   1.902  -0.835  0.00  0.00    +0.150 A 
ATOM     15  F   LIG    1        4.431   2.113   0.399  0.00  0.00    -0.203 F 
ATOM     16  C   LIG    1        4.741   2.874  -1.792  0.00  0.00    +0.078 A 
ATOM     17  C   LIG    1        5.245   2.710  -3.067  0.00  0.00    +0.126 A 
ATOM     18  C   LIG    1        5.944   1.562  -3.339  0.00  0.00    +0.040 A 
ATOM     19  F   LIG    1        5.053   3.663  -4.031  0.00  0.00    -0.205 F 
ATOM     20  C   LIG    1        6.139   0.604  -2.373  0.00  0.00    +0.032 A 
ENDBRANCH  10  13
BRANCH   7  21
ATOM     21  N   LIG    1        1.181  -0.927   0.417  0.00  0.00    -0.312 N 
ATOM     22  C   LIG    1        0.516   0.357   0.520  0.00  0.00    +0.112 C 
ATOM     23  C   LIG    1       -0.820  -0.011   1.097  0.00  0.00    +0.033 C 
ATOM     24  C   LIG    1       -1.044  -1.436   0.701  0.00  0.00    +0.033 C 
ATOM     25  C   LIG    1       -1.944  -0.370   0.192  0.00  0.00    +0.083 C 
ATOM     26  C   LIG    1        0.182  -1.832  -0.118  0.00  0.00    +0.112 C 
BRANCH  25  27
ATOM     27  N   LIG    1       -3.257  -0.354   0.801  0.00  0.00    -0.310 N 
ATOM     28  H   LIG    1       -3.431  -0.657   1.785  0.00  0.00    +0.149 HD
ATOM     29  C   LIG    1       -4.368   0.091   0.033  0.00  0.00    +0.233 C 
ATOM     30  O   LIG    1       -4.240   0.473  -1.163  0.00  0.00    -0.274 OA
BRANCH  29  31
ATOM     31  C   LIG    1       -5.737   0.129   0.607  0.00  0.00    +0.156 C 
ATOM     32  C   LIG    1       -6.172  -1.238   1.111  0.00  0.00    +0.038 C 
BRANCH  31  33
ATOM     33  N   LIG    1       -6.689   0.613  -0.354  0.00  0.00    -0.303 N 
ATOM     34  C   LIG    1       -7.458   1.772  -0.150  0.00  0.00    +0.230 C 
ATOM     35  O   LIG    1       -7.326   2.444   0.927  0.00  0.00    -0.274 OA
ATOM     36  H   LIG    1       -6.811   0.068  -1.251  0.00  0.00    +0.149 HD
BRANCH  34  37
ATOM     37  C   LIG    1       -8.422   2.220  -1.177  0.00  0.00    +0.135 C 
ATOM     38  C   LIG    1       -9.783   2.279  -0.522  0.00  0.00    +0.033 C 
BRANCH  37  39
ATOM     39  N   LIG    1       -8.399   1.314  -2.295  0.00  0.00    -0.320 NA
ATOM     40  H   LIG    1       -8.899   0.435  -1.989  0.00  0.00    +0.119 HD
ATOM     41  H   LIG    1       -8.926   1.675  -3.115  0.00  0.00    +0.119 HD
ENDBRANCH  37  39
ENDBRANCH  34  37
ENDBRANCH  31  33
ENDBRANCH  29  31
ENDBRANCH  25  27
ENDBRANCH   7  21
BRANCH  12  42
ATOM     42  C   LIG    1        8.792  -1.784   1.590  0.00  0.00    +0.342 C 
ATOM     43  O   LIG    1        9.062  -2.636   2.463  0.00  0.00    -0.245 OA
BRANCH  42  44
ATOM     44  O   LIG    1        9.830  -1.123   0.964  0.00  0.00    -0.477 OA
ATOM     45  H   LIG    1       10.664  -1.638   0.749  0.00  0.00    +0.295 HD
ENDBRANCH  42  44
ENDBRANCH  12  42
TORSDOF 9
