REMARK  Name = molecules/UVHGSMZRSVGWDJ-WJKWMCMVSA-N.pdb
REMARK                            x       y       z     vdW  Elec       q    Type
REMARK                         _______ _______ _______ _____ _____    ______ ____
ROOT
ATOM      1  C   LIG    1       -0.313  -0.191  -0.503  0.00  0.00    +0.180 C 
ATOM      2  C   LIG    1       -1.166  -1.103   0.287  0.00  0.00    +0.063 C 
ATOM      3  C   LIG    1       -2.570  -0.634   0.516  0.00  0.00    +0.060 C 
ATOM      4  N   LIG    1       -2.676   0.768   0.817  0.00  0.00    -0.299 NA
ATOM      5  C   LIG    1       -4.074   1.067   1.065  0.00  0.00    +0.105 C 
ATOM      6  C   LIG    1       -2.294   1.359  -0.468  0.00  0.00    +0.060 C 
ATOM      7  C   LIG    1       -3.023   0.522  -1.510  0.00  0.00    +0.020 C 
ATOM      8  C   LIG    1       -3.321  -0.762  -0.792  0.00  0.00    +0.020 C 
ATOM      9  C   LIG    1       -0.832   1.192  -0.688  0.00  0.00    +0.063 C 
ENDROOT
BRANCH   1  10
ATOM     10  O   LIG    1        1.026  -0.109   0.004  0.00  0.00    -0.458 OA
BRANCH  10  11
ATOM     11  C   LIG    1        2.130  -0.522  -0.715  0.00  0.00    +0.335 C 
ATOM     12  O   LIG    1        1.923  -0.987  -1.863  0.00  0.00    -0.245 OA
BRANCH  11  15
ATOM     13  C   LIG    1        5.085   0.116   1.493  0.00  0.00    +0.036 C 
ATOM     14  C   LIG    1        3.713   0.028   0.963  0.00  0.00    -0.020 C 
ATOM     15  C   LIG    1        3.487  -0.455  -0.235  0.00  0.00    +0.029 C 
ATOM     16  C   LIG    1        4.606  -0.912  -1.057  0.00  0.00    +0.051 C 
ENDBRANCH  11  15
ENDBRANCH  10  11
ENDBRANCH   1  10
TORSDOF 3
