REMARK  Name = molecules/UVKZSORBKUEBAZ-UHFFFAOYSA-N.pdb
REMARK                            x       y       z     vdW  Elec       q    Type
REMARK                         _______ _______ _______ _____ _____    ______ ____
ROOT
ATOM      1  C   LIG    1       -0.642  -0.071  -0.583  0.00  0.00    +0.117 C 
ENDROOT
BRANCH   1   2
ATOM      2  N   LIG    1        0.667   0.093  -0.047  0.00  0.00    -0.289 NA
ATOM      3  C   LIG    1        1.451  -1.068   0.114  0.00  0.00    +0.100 C 
ATOM      4  C   LIG    1        2.668  -0.653   0.954  0.00  0.00    +0.099 C 
ATOM      5  N   LIG    1        3.507   0.234   0.172  0.00  0.00    -0.303 NA
ATOM      6  C   LIG    1        4.677  -0.490  -0.222  0.00  0.00    +0.105 C 
ATOM      7  C   LIG    1        2.818   0.833  -0.936  0.00  0.00    +0.099 C 
ATOM      8  C   LIG    1        1.395   1.198  -0.562  0.00  0.00    +0.100 C 
ENDBRANCH   1   2
BRANCH   1   9
ATOM      9  C   LIG    1       -1.387  -1.222  -0.039  0.00  0.00    -0.026 A 
ATOM     10  C   LIG    1       -1.402  -1.493   1.310  0.00  0.00    +0.005 A 
ATOM     11  C   LIG    1       -2.103  -2.578   1.832  0.00  0.00    +0.000 A 
ATOM     12  C   LIG    1       -2.799  -3.403   0.983  0.00  0.00    +0.000 A 
ATOM     13  C   LIG    1       -2.804  -3.159  -0.388  0.00  0.00    +0.000 A 
ATOM     14  C   LIG    1       -2.095  -2.070  -0.862  0.00  0.00    +0.005 A 
ENDBRANCH   1   9
BRANCH   1  15
ATOM     15  C   LIG    1       -1.366   1.222  -0.402  0.00  0.00    -0.026 A 
ATOM     16  C   LIG    1       -1.296   1.919   0.806  0.00  0.00    +0.005 A 
ATOM     17  C   LIG    1       -1.945   3.112   1.017  0.00  0.00    +0.000 A 
ATOM     18  C   LIG    1       -2.694   3.637  -0.013  0.00  0.00    +0.000 A 
ATOM     19  C   LIG    1       -2.776   2.958  -1.223  0.00  0.00    +0.000 A 
ATOM     20  C   LIG    1       -2.126   1.773  -1.418  0.00  0.00    +0.005 A 
ENDBRANCH   1  15
TORSDOF 3
