REMARK  Name = molecules/UVTJKLLUVOTSOB-UHFFFAOYSA-N.pdb
REMARK                            x       y       z     vdW  Elec       q    Type
REMARK                         _______ _______ _______ _____ _____    ______ ____
ROOT
ATOM      1  O   LIG    1        0.550   1.867  -1.197  0.00  0.00    -0.267 OA
ATOM      2  C   LIG    1        0.953   0.805  -0.593  0.00  0.00    +0.266 A 
ATOM      3  C   LIG    1        2.234   0.756  -0.086  0.00  0.00    +0.065 A 
ATOM      4  C   LIG    1        2.646  -0.391   0.554  0.00  0.00    +0.078 A 
ATOM      5  C   LIG    1        3.919  -0.440   1.058  0.00  0.00    +0.028 A 
ATOM      6  C   LIG    1        4.796   0.635   0.938  0.00  0.00    +0.002 A 
ATOM      7  C   LIG    1        4.373   1.767   0.300  0.00  0.00    +0.001 A 
ATOM      8  N   LIG    1        1.796  -1.417   0.664  0.00  0.00    -0.233 NA
ATOM      9  C   LIG    1        0.539  -1.381   0.172  0.00  0.00    +0.114 A 
ATOM     10  C   LIG    1       -0.304  -2.590   0.341  0.00  0.00    +0.086 C 
ATOM     11  C   LIG    1        3.108   1.835  -0.209  0.00  0.00    +0.015 A 
ATOM     12  N   LIG    1        0.152  -0.261  -0.446  0.00  0.00    -0.264 N 
ENDROOT
BRANCH  12  13
ATOM     13  C   LIG    1       -1.164  -0.228  -0.958  0.00  0.00    +0.054 A 
ATOM     14  C   LIG    1       -2.104   0.526  -0.320  0.00  0.00    -0.024 A 
ATOM     15  C   LIG    1       -3.389   0.550  -0.864  0.00  0.00    +0.005 A 
ATOM     16  C   LIG    1       -3.743  -0.144  -1.997  0.00  0.00    +0.000 A 
ATOM     17  C   LIG    1       -2.757  -0.890  -2.603  0.00  0.00    +0.002 A 
ATOM     18  C   LIG    1       -1.482  -0.935  -2.094  0.00  0.00    +0.026 A 
BRANCH  14  19
ATOM     19  C   LIG    1       -1.915   1.314   0.915  0.00  0.00    +0.034 C 
ATOM     20  C   LIG    1       -1.991   0.379   2.103  0.00  0.00    +0.009 C 
ENDBRANCH  14  19
ENDBRANCH  12  13
TORSDOF 2
