REMARK  Name = molecules/UVTLONZTPXCUPU-ZNMIVQPWSA-N.pdb
REMARK                            x       y       z     vdW  Elec       q    Type
REMARK                         _______ _______ _______ _____ _____    ______ ____
ROOT
ATOM      1  C   LIG    1        0.189   1.020  -0.473  0.00  0.00    +0.092 C 
ENDROOT
BRANCH   1   2
ATOM      2  C   LIG    1        1.075  -0.115  -0.284  0.00  0.00    -0.026 A 
ATOM      3  C   LIG    1        1.519  -0.589   0.935  0.00  0.00    +0.050 A 
ATOM      4  C   LIG    1        2.371  -1.678   1.028  0.00  0.00    +0.117 A 
ATOM      5  C   LIG    1        2.807  -2.330  -0.102  0.00  0.00    +0.045 A 
ATOM      6  C   LIG    1        2.376  -1.873  -1.323  0.00  0.00    +0.004 A 
ATOM      7  C   LIG    1        1.543  -0.806  -1.383  0.00  0.00    +0.005 A 
BRANCH   4   8
ATOM      8  O   LIG    1        2.786  -2.110   2.303  0.00  0.00    -0.507 OA
ATOM      9  H   LIG    1        3.407  -2.904   2.384  0.00  0.00    +0.292 HD
ENDBRANCH   4   8
ENDBRANCH   1   2
BRANCH   1  10
ATOM     10  C   LIG    1       -1.283   0.782  -0.393  0.00  0.00    +0.039 C 
ATOM     11  C   LIG    1       -1.853   0.392   0.911  0.00  0.00    +0.119 C 
ATOM     12  C   LIG    1       -1.997  -1.061   1.200  0.00  0.00    +0.031 C 
ATOM     13  C   LIG    1       -2.765  -1.726   0.080  0.00  0.00    +0.003 C 
ATOM     14  C   LIG    1       -1.937  -1.533  -1.173  0.00  0.00    +0.000 C 
ATOM     15  C   LIG    1       -1.758  -0.083  -1.506  0.00  0.00    +0.008 C 
BRANCH  11  16
ATOM     16  O   LIG    1       -1.259   1.085   1.980  0.00  0.00    -0.391 OA
ATOM     17  H   LIG    1       -1.334   0.479   2.768  0.00  0.00    +0.210 HD
ENDBRANCH  11  16
ENDBRANCH   1  10
BRANCH   1  18
ATOM     18  N   LIG    1        0.636   2.098   0.421  0.00  0.00    -0.301 NA
ATOM     19  C   LIG    1        2.054   2.274   0.184  0.00  0.00    +0.105 C 
ATOM     20  C   LIG    1       -0.029   3.324  -0.033  0.00  0.00    +0.105 C 
ENDBRANCH   1  18
TORSDOF 5
