REMARK  Name = molecules/UVTNFZQICZKOEM-NRFANRHFSA-N.pdb
REMARK                            x       y       z     vdW  Elec       q    Type
REMARK                         _______ _______ _______ _____ _____    ______ ____
ROOT
ATOM      1  C   LIG    1       -1.481  -0.524   0.393  0.00  0.00    +0.114 C 
ENDROOT
BRANCH   1   2
ATOM      2  C   LIG    1       -1.980   0.879   0.367  0.00  0.00    +0.061 A 
ATOM      3  N   LIG    1       -1.248   1.872   0.850  0.00  0.00    -0.259 NA
ATOM      4  C   LIG    1       -1.649   3.164   0.870  0.00  0.00    +0.111 A 
ATOM      5  C   LIG    1       -2.885   3.499   0.367  0.00  0.00    +0.020 A 
ATOM      6  C   LIG    1       -3.670   2.470  -0.145  0.00  0.00    +0.003 A 
ATOM      7  C   LIG    1       -3.244   1.155  -0.157  0.00  0.00    +0.025 A 
ENDBRANCH   1   2
BRANCH   1   8
ATOM      8  C   LIG    1       -2.115  -1.270  -0.728  0.00  0.00    -0.027 A 
ATOM      9  C   LIG    1       -2.726  -2.470  -0.522  0.00  0.00    +0.005 A 
ATOM     10  C   LIG    1       -3.328  -3.156  -1.593  0.00  0.00    +0.000 A 
ATOM     11  C   LIG    1       -3.295  -2.605  -2.860  0.00  0.00    +0.000 A 
ATOM     12  C   LIG    1       -2.677  -1.403  -3.040  0.00  0.00    +0.000 A 
ATOM     13  C   LIG    1       -2.095  -0.744  -1.988  0.00  0.00    +0.005 A 
ENDBRANCH   1   8
BRANCH   1  14
ATOM     14  C   LIG    1       -1.915  -1.147   1.631  0.00  0.00    +0.227 C 
ATOM     15  O   LIG    1       -1.101  -1.641   2.438  0.00  0.00    -0.275 OA
ATOM     16  N   LIG    1       -3.275  -1.215   1.965  0.00  0.00    -0.328 N 
ATOM     17  H   LIG    1       -3.640  -2.008   2.522  0.00  0.00    +0.145 HD
ATOM     18  H   LIG    1       -3.925  -0.474   1.659  0.00  0.00    +0.145 HD
ENDBRANCH   1  14
BRANCH   1  19
ATOM     19  C   LIG    1       -0.009  -0.652   0.100  0.00  0.00    +0.042 C 
BRANCH  19  20
ATOM     20  C   LIG    1        0.957  -0.106   1.047  0.00  0.00    +0.086 C 
BRANCH  20  21
ATOM     21  N   LIG    1        2.319  -0.368   0.613  0.00  0.00    -0.297 NA
BRANCH  21  22
ATOM     22  C   LIG    1        3.232   0.147   1.562  0.00  0.00    +0.051 C 
ATOM     23  C   LIG    1        3.276   1.615   1.781  0.00  0.00    +0.024 C 
ATOM     24  C   LIG    1        4.628  -0.431   1.528  0.00  0.00    +0.024 C 
ENDBRANCH  21  22
BRANCH  21  25
ATOM     25  C   LIG    1        2.530  -0.210  -0.753  0.00  0.00    +0.051 C 
ATOM     26  C   LIG    1        2.180   1.170  -1.293  0.00  0.00    +0.024 C 
ATOM     27  C   LIG    1        3.862  -0.562  -1.316  0.00  0.00    +0.024 C 
ENDBRANCH  21  25
ENDBRANCH  20  21
ENDBRANCH  19  20
ENDBRANCH   1  19
TORSDOF 8
