REMARK  Name = molecules/UWCBNAVPISMFJZ-GFCCVEGCSA-N.pdb
REMARK                            x       y       z     vdW  Elec       q    Type
REMARK                         _______ _______ _______ _____ _____    ______ ____
ROOT
ATOM      1  C   LIG    1        1.763  -0.216   0.027  0.00  0.00    +0.162 A 
ATOM      2  C   LIG    1        1.369  -0.639   1.282  0.00  0.00    +0.049 A 
ATOM      3  C   LIG    1        2.180  -1.488   2.017  0.00  0.00    +0.004 A 
ATOM      4  C   LIG    1        3.389  -1.939   1.547  0.00  0.00    +0.004 A 
ATOM      5  C   LIG    1        3.810  -1.532   0.294  0.00  0.00    +0.049 A 
ATOM      6  C   LIG    1        2.998  -0.683  -0.444  0.00  0.00    +0.163 A 
ENDROOT
BRANCH   1   7
ATOM      7  O   LIG    1        1.030   0.618  -0.791  0.00  0.00    -0.486 OA
BRANCH   7   8
ATOM      8  C   LIG    1       -0.249   1.063  -0.463  0.00  0.00    +0.261 C 
BRANCH   8   9
ATOM      9  C   LIG    1       -1.310  -0.038  -0.447  0.00  0.00    +0.166 C 
BRANCH   9  10
ATOM     10  O   LIG    1       -1.410  -0.560  -1.757  0.00  0.00    -0.387 OA
ATOM     11  H   LIG    1       -1.228   0.194  -2.364  0.00  0.00    +0.210 HD
ENDBRANCH   9  10
BRANCH   9  12
ATOM     12  C   LIG    1       -2.610   0.543   0.014  0.00  0.00    +0.116 C 
BRANCH  12  13
ATOM     13  N   LIG    1       -3.682  -0.434  -0.018  0.00  0.00    -0.309 NA
ATOM     14  H   LIG    1       -3.404  -1.363   0.323  0.00  0.00    +0.123 HD
BRANCH  13  15
ATOM     15  C   LIG    1       -4.937   0.020   0.480  0.00  0.00    +0.011 C 
ATOM     16  C   LIG    1       -4.859   0.378   1.955  0.00  0.00    +0.027 C 
ATOM     17  C   LIG    1       -5.960  -1.069   0.203  0.00  0.00    +0.027 C 
ATOM     18  C   LIG    1       -5.397   1.294  -0.248  0.00  0.00    +0.027 C 
ENDBRANCH  13  15
ENDBRANCH  12  13
ENDBRANCH   9  12
ENDBRANCH   8   9
ENDBRANCH   7   8
ENDBRANCH   1   7
BRANCH   6  19
ATOM     19  O   LIG    1        3.378  -0.248  -1.717  0.00  0.00    -0.479 OA
BRANCH  19  20
ATOM     20  C   LIG    1        4.600  -0.667  -2.244  0.00  0.00    +0.324 C 
BRANCH  20  21
ATOM     21  C   LIG    1        5.794  -0.168  -1.462  0.00  0.00    +0.250 C 
ATOM     22  N   LIG    1        5.649   0.759  -0.425  0.00  0.00    -0.316 N 
ATOM     23  C   LIG    1        5.514   1.650   0.572  0.00  0.00    +0.128 C 
ATOM     24  H   LIG    1        7.012   0.818  -0.264  0.00  0.00    +0.148 HD
ATOM     25  O   LIG    1        6.890  -0.661  -1.841  0.00  0.00    -0.272 OA
ENDBRANCH  20  21
ENDBRANCH  19  20
ENDBRANCH   6  19
TORSDOF 10
