REMARK  Name = molecules/UWEYRJFJVCLAGH-XIXRPRMCSA-N.pdb
REMARK                            x       y       z     vdW  Elec       q    Type
REMARK                         _______ _______ _______ _____ _____    ______ ____
ROOT
ATOM      1  F   LIG    1       -0.580   0.139  -2.121  0.00  0.00    -0.225 F 
ATOM      2  C   LIG    1       -0.137   0.372  -0.803  0.00  0.00    +0.293 C 
ATOM      3  C   LIG    1        0.071  -0.933  -0.157  0.00  0.00    +0.293 C 
ATOM      4  C   LIG    1       -1.035  -1.268   0.861  0.00  0.00    +0.359 C 
ATOM      5  F   LIG    1       -0.909  -0.402   1.920  0.00  0.00    -0.195 F 
ATOM      6  F   LIG    1       -0.964  -2.576   1.228  0.00  0.00    -0.195 F 
ATOM      7  C   LIG    1       -2.347  -0.988   0.119  0.00  0.00    +0.381 C 
ATOM      8  F   LIG    1       -3.358  -1.520   0.895  0.00  0.00    -0.192 F 
ATOM      9  C   LIG    1       -2.470   0.522   0.150  0.00  0.00    +0.381 C 
ATOM     10  F   LIG    1       -2.788   0.849   1.476  0.00  0.00    -0.192 F 
ATOM     11  F   LIG    1       -3.576   0.910  -0.594  0.00  0.00    -0.192 F 
ATOM     12  F   LIG    1       -2.327  -1.488  -1.155  0.00  0.00    -0.192 F 
ATOM     13  C   LIG    1        1.347  -1.149   0.565  0.00  0.00    +0.359 C 
ATOM     14  F   LIG    1        1.210  -0.828   1.919  0.00  0.00    -0.195 F 
ATOM     15  F   LIG    1        1.716  -2.501   0.559  0.00  0.00    -0.195 F 
ATOM     16  C   LIG    1        2.523  -0.399   0.031  0.00  0.00    +0.381 C 
ATOM     17  F   LIG    1        3.557  -0.530   0.946  0.00  0.00    -0.192 F 
ATOM     18  C   LIG    1        2.122   1.079   0.068  0.00  0.00    +0.381 C 
ATOM     19  F   LIG    1        1.778   1.405   1.342  0.00  0.00    -0.192 F 
ATOM     20  F   LIG    1        3.243   1.778  -0.351  0.00  0.00    -0.192 F 
ATOM     21  F   LIG    1        2.949  -0.795  -1.194  0.00  0.00    -0.192 F 
ATOM     22  F   LIG    1       -0.025  -1.988  -1.084  0.00  0.00    -0.225 F 
ATOM     23  C   LIG    1       -1.224   1.232  -0.202  0.00  0.00    +0.359 C 
ATOM     24  F   LIG    1       -0.663   1.940   0.843  0.00  0.00    -0.195 F 
ATOM     25  F   LIG    1       -1.548   2.206  -1.162  0.00  0.00    -0.195 F 
ATOM     26  C   LIG    1        1.061   1.251  -0.954  0.00  0.00    +0.359 C 
ATOM     27  F   LIG    1        0.706   2.611  -0.937  0.00  0.00    -0.195 F 
ATOM     28  F   LIG    1        1.666   1.073  -2.208  0.00  0.00    -0.195 F 
ENDROOT
TORSDOF 0
