REMARK  Name = molecules/UWKQSNNFCGGAFS-XIFFEERXSA-N.pdb
REMARK                            x       y       z     vdW  Elec       q    Type
REMARK                         _______ _______ _______ _____ _____    ______ ____
ROOT
ATOM      1  C   LIG    1        2.079  -1.142   0.669  0.00  0.00    -0.031 A 
ATOM      2  C   LIG    1        3.469  -0.974   0.707  0.00  0.00    +0.003 A 
ATOM      3  C   LIG    1        4.499  -1.405   1.696  0.00  0.00    +0.163 C 
ATOM      4  N   LIG    1        5.749  -0.930   1.171  0.00  0.00    -0.302 N 
ATOM      5  C   LIG    1        6.997  -1.054   1.685  0.00  0.00    +0.259 A 
ATOM      6  O   LIG    1        7.185  -1.665   2.790  0.00  0.00    -0.267 OA
ATOM      7  C   LIG    1        8.115  -0.541   1.065  0.00  0.00    +0.061 A 
ATOM      8  C   LIG    1        9.482  -0.700   1.667  0.00  0.00    +0.273 C 
ATOM      9  O   LIG    1       10.467  -0.714   0.626  0.00  0.00    -0.457 OA
ATOM     10  C   LIG    1       10.246  -0.234  -0.638  0.00  0.00    +0.344 C 
ATOM     11  C   LIG    1        9.080   0.694  -0.838  0.00  0.00    +0.188 C 
ATOM     12  O   LIG    1       10.940  -0.506  -1.651  0.00  0.00    -0.247 OA
ATOM     13  C   LIG    1        7.933   0.122  -0.129  0.00  0.00    +0.008 A 
ATOM     14  C   LIG    1        6.672   0.254  -0.661  0.00  0.00    +0.035 A 
ATOM     15  C   LIG    1        5.590  -0.280   0.005  0.00  0.00    +0.071 A 
ATOM     16  C   LIG    1        4.154  -0.310  -0.285  0.00  0.00    +0.093 A 
ATOM     17  N   LIG    1        3.412   0.171  -1.296  0.00  0.00    -0.245 NA
ATOM     18  C   LIG    1        2.064   0.030  -1.370  0.00  0.00    +0.072 A 
ATOM     19  C   LIG    1        1.386   0.563  -2.446  0.00  0.00    +0.032 A 
ATOM     20  C   LIG    1       -0.006   0.433  -2.537  0.00  0.00    +0.048 A 
ATOM     21  C   LIG    1       -0.713  -0.225  -1.558  0.00  0.00    +0.134 A 
ATOM     22  C   LIG    1       -0.015  -0.749  -0.495  0.00  0.00    +0.056 A 
ATOM     23  C   LIG    1        1.363  -0.631  -0.387  0.00  0.00    +0.007 A 
ENDROOT
BRANCH   1  24
ATOM     24  C   LIG    1        1.429  -1.866   1.775  0.00  0.00    +0.033 C 
ATOM     25  C   LIG    1        1.291  -0.961   2.993  0.00  0.00    +0.009 C 
ENDBRANCH   1  24
BRANCH  11  26
ATOM     26  C   LIG    1        9.518   2.024  -0.255  0.00  0.00    +0.048 C 
ATOM     27  C   LIG    1        8.454   3.072  -0.295  0.00  0.00    +0.007 C 
ENDBRANCH  11  26
BRANCH  11  28
ATOM     28  O   LIG    1        8.836   0.912  -2.192  0.00  0.00    -0.373 OA
ATOM     29  H   LIG    1        8.480   1.826  -2.293  0.00  0.00    +0.211 HD
ENDBRANCH  11  28
BRANCH  21  30
ATOM     30  O   LIG    1       -2.083  -0.329  -1.688  0.00  0.00    -0.411 OA
BRANCH  30  31
ATOM     31  C   LIG    1       -2.973   0.624  -1.270  0.00  0.00    +0.408 C 
ATOM     32  O   LIG    1       -2.482   1.669  -0.727  0.00  0.00    -0.226 OA
ATOM     33  N   LIG    1       -4.406   0.508  -1.410  0.00  0.00    -0.267 N 
ATOM     34  C   LIG    1       -5.287   1.542  -0.972  0.00  0.00    +0.112 C 
ATOM     35  C   LIG    1       -6.649   1.111  -0.556  0.00  0.00    +0.038 C 
ATOM     36  C   LIG    1       -6.743  -0.403  -0.445  0.00  0.00    +0.060 C 
ATOM     37  C   LIG    1       -6.310  -1.037  -1.742  0.00  0.00    +0.038 C 
ATOM     38  C   LIG    1       -4.888  -0.689  -2.014  0.00  0.00    +0.112 C 
BRANCH  36  39
ATOM     39  N   LIG    1       -7.983  -0.879   0.043  0.00  0.00    -0.299 NA
ATOM     40  C   LIG    1       -8.183  -0.879   1.444  0.00  0.00    +0.084 C 
ATOM     41  C   LIG    1       -9.571  -0.473   1.873  0.00  0.00    +0.015 C 
ATOM     42  C   LIG    1      -10.077   0.714   1.091  0.00  0.00    +0.002 C 
ATOM     43  C   LIG    1       -9.991   0.505  -0.389  0.00  0.00    +0.015 C 
ATOM     44  C   LIG    1       -9.139  -0.666  -0.740  0.00  0.00    +0.084 C 
ENDBRANCH  36  39
ENDBRANCH  30  31
ENDBRANCH  21  30
TORSDOF 6
