REMARK  Name = molecules/UWYHMGVUTGAWSP-JKIFEVAISA-N.pdb
REMARK                            x       y       z     vdW  Elec       q    Type
REMARK                         _______ _______ _______ _____ _____    ______ ____
ROOT
ATOM      1  N   LIG    1        0.300   1.518  -0.205  0.00  0.00    -0.298 N 
ATOM      2  H   LIG    1        0.706   0.708   0.346  0.00  0.00    +0.150 HD
ATOM      3  C   LIG    1        1.120   2.233  -1.101  0.00  0.00    +0.250 C 
ATOM      4  O   LIG    1        0.564   3.221  -1.696  0.00  0.00    -0.270 OA
ENDROOT
BRANCH   1   9
ATOM      5  CA  LIG    1       -2.242  -0.562   1.916  0.00  0.00    +0.201 C 
ATOM      6  N   LIG    1       -1.921   0.707   1.423  0.00  0.00    -0.271 N 
ATOM      7  C   LIG    1       -1.491   2.043   1.420  0.00  0.00    +0.240 C 
ATOM      8  O   LIG    1       -1.440   2.997   2.226  0.00  0.00    -0.273 OA
ATOM      9  CA  LIG    1       -1.073   1.920  -0.029  0.00  0.00    +0.190 C 
ATOM     10  C   LIG    1       -2.110   0.886  -0.007  0.00  0.00    +0.165 C 
ATOM     11  S   LIG    1       -1.712  -0.788  -0.576  0.00  0.00    -0.127 S 
ATOM     12  C   LIG    1       -2.536  -1.546   0.859  0.00  0.00    +0.042 C 
ATOM     13  C   LIG    1       -2.001  -2.925   1.145  0.00  0.00    +0.025 C 
ATOM     14  C   LIG    1       -4.028  -1.602   0.508  0.00  0.00    +0.025 C 
BRANCH   5  15
ATOM     15  C   LIG    1       -3.408  -0.478   2.873  0.00  0.00    +0.327 C 
ATOM     16  O   LIG    1       -3.970   0.612   3.148  0.00  0.00    -0.249 OA
BRANCH  15  17
ATOM     17  OXT LIG    1       -3.900  -1.621   3.487  0.00  0.00    -0.479 OA
ATOM     18  HXT LIG    1       -4.764  -2.067   3.275  0.00  0.00    +0.295 HD
ENDBRANCH  15  17
ENDBRANCH   5  15
ENDBRANCH   1   9
BRANCH   3  19
ATOM     19  C   LIG    1        2.500   1.996  -1.427  0.00  0.00    +0.106 A 
ATOM     20  C   LIG    1        3.237   0.861  -1.223  0.00  0.00    +0.126 A 
ATOM     21  N   LIG    1        4.503   1.181  -1.635  0.00  0.00    -0.077 NA
ATOM     22  O   LIG    1        4.521   2.403  -2.053  0.00  0.00    -0.359 OA
ATOM     23  C   LIG    1        3.354   2.972  -1.964  0.00  0.00    +0.147 A 
ATOM     24  C   LIG    1        2.970   4.370  -2.346  0.00  0.00    +0.090 C 
BRANCH  20  25
ATOM     25  C   LIG    1        2.899  -0.461  -0.713  0.00  0.00    +0.004 A 
ATOM     26  C   LIG    1        3.702  -1.004   0.298  0.00  0.00    +0.010 A 
ATOM     27  C   LIG    1        3.501  -2.255   0.820  0.00  0.00    +0.001 A 
ATOM     28  C   LIG    1        2.458  -3.022   0.332  0.00  0.00    +0.000 A 
ATOM     29  C   LIG    1        1.659  -2.501  -0.663  0.00  0.00    +0.001 A 
ATOM     30  C   LIG    1        1.872  -1.245  -1.178  0.00  0.00    +0.010 A 
ENDBRANCH  20  25
ENDBRANCH   3  19
TORSDOF 5
