REMARK  Name = molecules/UXIGZRQVLGFTOU-VQXQMPIVSA-N.pdb
REMARK                            x       y       z     vdW  Elec       q    Type
REMARK                         _______ _______ _______ _____ _____    ______ ____
ROOT
ATOM      1  C   LIG    1        0.084  -1.056   1.218  0.00  0.00    +0.165 C 
ENDROOT
BRANCH   1   4
ATOM      2  N   LIG    1        2.432  -0.288   0.639  0.00  0.00    -0.308 N 
ATOM      3  H   LIG    1        2.994  -1.069   0.991  0.00  0.00    +0.149 HD
ATOM      4  C   LIG    1        1.043  -0.134   0.652  0.00  0.00    +0.234 C 
ATOM      5  O   LIG    1        0.561   0.934   0.098  0.00  0.00    -0.274 OA
BRANCH   2   6
ATOM      6  C   LIG    1        3.288   0.785   0.006  0.00  0.00    +0.104 C 
BRANCH   6   7
ATOM      7  C   LIG    1        4.117  -0.027  -0.963  0.00  0.00    +0.163 C 
BRANCH   7   8
ATOM      8  O   LIG    1        4.788  -0.979  -0.153  0.00  0.00    -0.387 OA
ATOM      9  H   LIG    1        5.136  -1.727  -0.690  0.00  0.00    +0.210 HD
ENDBRANCH   7   8
BRANCH   7  10
ATOM     10  C   LIG    1        3.259  -0.867  -1.895  0.00  0.00    +0.148 C 
BRANCH  10  11
ATOM     11  C   LIG    1        2.609  -0.067  -2.985  0.00  0.00    +0.020 C 
ATOM     12  C   LIG    1        3.371   0.699  -3.970  0.00  0.00    +0.006 C 
ATOM     13  C   LIG    1        2.789  -0.592  -4.439  0.00  0.00    +0.006 C 
ENDBRANCH  10  11
BRANCH  10  14
ATOM     14  O   LIG    1        2.364  -1.657  -1.199  0.00  0.00    -0.389 OA
ATOM     15  H   LIG    1        2.361  -2.578  -1.557  0.00  0.00    +0.210 HD
ENDBRANCH  10  14
ENDBRANCH   7  10
ENDBRANCH   6   7
BRANCH   6  16
ATOM     16  C   LIG    1        4.162   1.272   1.123  0.00  0.00    +0.028 C 
BRANCH  16  17
ATOM     17  C   LIG    1        5.069   2.391   0.899  0.00  0.00    -0.009 C 
ATOM     18  C   LIG    1        5.809   2.626   2.246  0.00  0.00    +0.003 C 
ATOM     19  C   LIG    1        6.912   1.618   2.402  0.00  0.00    +0.000 C 
ATOM     20  C   LIG    1        7.894   1.653   1.275  0.00  0.00    +0.000 C 
ATOM     21  C   LIG    1        7.223   1.475  -0.067  0.00  0.00    +0.000 C 
ATOM     22  C   LIG    1        6.072   2.422  -0.169  0.00  0.00    +0.003 C 
ENDBRANCH  16  17
ENDBRANCH   6  16
ENDBRANCH   2   6
ENDBRANCH   1   4
BRANCH   1  23
ATOM     23  N   LIG    1       -1.050  -1.336   0.380  0.00  0.00    -0.303 N 
ATOM     24  C   LIG    1       -2.368  -0.817   0.588  0.00  0.00    +0.219 C 
ATOM     25  O   LIG    1       -2.515  -0.076   1.567  0.00  0.00    -0.275 OA
ATOM     26  H   LIG    1       -0.915  -1.961  -0.442  0.00  0.00    +0.149 HD
BRANCH  24  27
ATOM     27  C   LIG    1       -3.490  -1.145  -0.308  0.00  0.00    +0.100 C 
BRANCH  27  28
ATOM     28  C   LIG    1       -4.822  -0.699   0.129  0.00  0.00    +0.179 C 
BRANCH  28  29
ATOM     29  S   LIG    1       -5.122   0.984   0.419  0.00  0.00    -0.025 S 
ATOM     30  O   LIG    1       -4.327   1.586   1.555  0.00  0.00    -0.174 OA
ATOM     31  O   LIG    1       -4.815   1.804  -0.781  0.00  0.00    -0.174 OA
BRANCH  29  32
ATOM     32  C   LIG    1       -6.825   1.293   0.874  0.00  0.00    +0.079 C 
ATOM     33  C   LIG    1       -7.208   0.560   2.121  0.00  0.00    +0.035 C 
ATOM     34  C   LIG    1       -7.031   2.770   1.125  0.00  0.00    +0.035 C 
ATOM     35  C   LIG    1       -7.752   0.879  -0.243  0.00  0.00    +0.035 C 
ENDBRANCH  29  32
ENDBRANCH  28  29
ENDBRANCH  27  28
BRANCH  27  36
ATOM     36  C   LIG    1       -3.160  -0.967  -1.774  0.00  0.00    +0.049 C 
BRANCH  36  37
ATOM     37  C   LIG    1       -4.260  -1.345  -2.649  0.00  0.00    -0.047 A 
ATOM     38  C   LIG    1       -4.431  -2.687  -2.943  0.00  0.00    +0.003 A 
ATOM     39  C   LIG    1       -5.435  -3.103  -3.786  0.00  0.00    +0.000 A 
ATOM     40  C   LIG    1       -6.289  -2.197  -4.354  0.00  0.00    +0.000 A 
ATOM     41  C   LIG    1       -6.141  -0.864  -4.081  0.00  0.00    +0.000 A 
ATOM     42  C   LIG    1       -5.113  -0.467  -3.222  0.00  0.00    +0.003 A 
ENDBRANCH  36  37
ENDBRANCH  27  36
ENDBRANCH  24  27
ENDBRANCH   1  23
BRANCH   1  43
ATOM     43  C   LIG    1        0.642  -2.193   1.987  0.00  0.00    +0.088 C 
BRANCH  43  44
ATOM     44  C   LIG    1        1.386  -1.856   3.206  0.00  0.00    +0.061 A 
ATOM     45  C   LIG    1        0.764  -1.696   4.461  0.00  0.00    +0.107 A 
ATOM     46  N   LIG    1        1.701  -1.420   5.385  0.00  0.00    -0.351 N 
ATOM     47  H   LIG    1        1.532  -1.250   6.420  0.00  0.00    +0.166 HD
ATOM     48  C   LIG    1        2.880  -1.401   4.758  0.00  0.00    +0.196 A 
ATOM     49  N   LIG    1        2.667  -1.664   3.463  0.00  0.00    -0.241 NA
ENDBRANCH  43  44
ENDBRANCH   1  43
TORSDOF 18
