REMARK  Name = molecules/UXOWGYHJODZGMF-QORCZRPOSA-N.pdb
REMARK                            x       y       z     vdW  Elec       q    Type
REMARK                         _______ _______ _______ _____ _____    ______ ____
ROOT
ATOM      1  C   LIG    1       -0.884  -0.656   1.807  0.00  0.00    +0.080 C 
ENDROOT
BRANCH   1   2
ATOM      2  N   LIG    1       -0.754  -1.887   2.550  0.00  0.00    -0.325 NA
ATOM      3  H   LIG    1       -1.416  -1.833   3.372  0.00  0.00    +0.119 HD
ATOM      4  H   LIG    1       -1.031  -2.657   1.875  0.00  0.00    +0.119 HD
ENDBRANCH   1   2
BRANCH   1   5
ATOM      5  C   LIG    1        0.147  -0.330   0.836  0.00  0.00    +0.025 C 
BRANCH   5   6
ATOM      6  C   LIG    1        1.558  -0.159   1.316  0.00  0.00    -0.003 C 
BRANCH   6   7
ATOM      7  C   LIG    1        2.216  -1.287   2.002  0.00  0.00    -0.014 C 
ATOM      8  C   LIG    1        1.927  -1.464   3.464  0.00  0.00    +0.007 C 
ATOM      9  C   LIG    1        2.298  -2.581   1.273  0.00  0.00    +0.007 C 
ENDBRANCH   6   7
BRANCH   6  10
ATOM     10  C   LIG    1        2.327   0.217   0.022  0.00  0.00    +0.039 C 
BRANCH  10  15
ATOM     11  C   LIG    1        5.456   2.052   0.967  0.00  0.00    +0.049 A 
ATOM     12  C   LIG    1        6.437   1.108   0.806  0.00  0.00    +0.162 A 
ATOM     13  C   LIG    1        6.108  -0.191   0.377  0.00  0.00    +0.162 A 
ATOM     14  C   LIG    1        4.778  -0.427   0.141  0.00  0.00    +0.053 A 
ATOM     15  C   LIG    1        3.765   0.479   0.286  0.00  0.00    -0.043 A 
ATOM     16  C   LIG    1        4.137   1.769   0.718  0.00  0.00    +0.007 A 
BRANCH  12  17
ATOM     17  O   LIG    1        7.753   1.448   1.071  0.00  0.00    -0.491 OA
ATOM     18  C   LIG    1        8.164   2.706   1.500  0.00  0.00    +0.277 C 
ENDBRANCH  12  17
BRANCH  13  19
ATOM     19  O   LIG    1        7.153  -1.038   0.247  0.00  0.00    -0.488 OA
BRANCH  19  20
ATOM     20  C   LIG    1        7.293  -2.338  -0.151  0.00  0.00    +0.231 C 
BRANCH  20  21
ATOM     21  C   LIG    1        6.878  -2.645  -1.578  0.00  0.00    +0.069 C 
BRANCH  21  22
ATOM     22  C   LIG    1        7.758  -1.739  -2.450  0.00  0.00    +0.163 C 
BRANCH  22  23
ATOM     23  O   LIG    1        7.449  -0.443  -2.035  0.00  0.00    -0.383 OA
ATOM     24  C   LIG    1        8.159   0.528  -2.720  0.00  0.00    +0.193 C 
ENDBRANCH  22  23
ENDBRANCH  21  22
ENDBRANCH  20  21
ENDBRANCH  19  20
ENDBRANCH  13  19
ENDBRANCH  10  15
ENDBRANCH   6  10
ENDBRANCH   5   6
ENDBRANCH   1   5
BRANCH   1  25
ATOM     25  C   LIG    1       -2.316  -0.753   1.210  0.00  0.00    +0.132 C 
BRANCH  25  26
ATOM     26  O   LIG    1       -3.133  -0.779   2.283  0.00  0.00    -0.390 OA
ATOM     27  H   LIG    1       -3.370  -1.622   2.676  0.00  0.00    +0.210 HD
ENDBRANCH  25  26
BRANCH  25  28
ATOM     28  C   LIG    1       -2.417   0.187   0.128  0.00  0.00    +0.046 C 
BRANCH  28  29
ATOM     29  C   LIG    1       -3.588   0.481  -0.682  0.00  0.00    +0.080 C 
BRANCH  29  30
ATOM     30  C   LIG    1       -4.729   1.103   0.156  0.00  0.00    +0.216 C 
ATOM     31  O   LIG    1       -4.607   1.002   1.402  0.00  0.00    -0.276 OA
ATOM     32  N   LIG    1       -5.755   1.705  -0.445  0.00  0.00    -0.314 N 
ATOM     33  H   LIG    1       -6.283   2.072   0.759  0.00  0.00    +0.149 HD
BRANCH  32  34
ATOM     34  C   LIG    1       -6.833   2.337  -1.068  0.00  0.00    +0.119 C 
BRANCH  34  35
ATOM     35  C   LIG    1       -8.191   1.763  -0.697  0.00  0.00    +0.057 C 
ATOM     36  C   LIG    1       -8.364   0.360  -1.169  0.00  0.00    +0.022 C 
ATOM     37  C   LIG    1       -9.222   2.697  -1.361  0.00  0.00    +0.022 C 
BRANCH  35  38
ATOM     38  C   LIG    1       -8.313   1.921   0.782  0.00  0.00    +0.218 C 
ATOM     39  O   LIG    1       -8.438   0.910   1.490  0.00  0.00    -0.275 OA
ATOM     40  N   LIG    1       -8.281   3.229   1.317  0.00  0.00    -0.329 N 
ATOM     41  H   LIG    1       -7.752   3.378   2.225  0.00  0.00    +0.145 HD
ATOM     42  H   LIG    1       -8.754   4.018   0.855  0.00  0.00    +0.145 HD
ENDBRANCH  35  38
ENDBRANCH  34  35
ENDBRANCH  32  34
ENDBRANCH  29  30
BRANCH  29  43
ATOM     43  C   LIG    1       -4.138  -0.631  -1.524  0.00  0.00    -0.005 C 
ATOM     44  C   LIG    1       -4.603  -1.845  -0.812  0.00  0.00    +0.008 C 
ATOM     45  C   LIG    1       -3.094  -1.066  -2.530  0.00  0.00    +0.008 C 
ENDBRANCH  29  43
ENDBRANCH  28  29
ENDBRANCH  25  28
ENDBRANCH   1  25
TORSDOF 21
