REMARK  Name = molecules/UXYRZJKIQKRJCF-TZPFWLJSSA-N.pdb
REMARK                            x       y       z     vdW  Elec       q    Type
REMARK                         _______ _______ _______ _____ _____    ______ ____
ROOT
ATOM      1  C   LIG    1       -1.675  -0.427  -0.204  0.00  0.00    -0.023 C 
ATOM      2  C   LIG    1       -2.844  -0.814   0.594  0.00  0.00    -0.001 C 
ATOM      3  C   LIG    1       -2.654  -1.530   1.875  0.00  0.00    +0.008 C 
ATOM      4  C   LIG    1       -3.816   0.346   0.870  0.00  0.00    +0.078 C 
ATOM      5  C   LIG    1       -4.449   0.666  -0.423  0.00  0.00    +0.134 C 
ATOM      6  O   LIG    1       -5.594   0.984  -0.603  0.00  0.00    -0.297 OA
ATOM      7  C   LIG    1       -3.512   0.567  -1.606  0.00  0.00    +0.078 C 
ATOM      8  C   LIG    1       -0.426  -0.075   0.506  0.00  0.00    -0.001 C 
ATOM      9  C   LIG    1        0.287  -1.147   1.219  0.00  0.00    +0.005 C 
ATOM     10  C   LIG    1        1.663  -1.516   0.743  0.00  0.00    +0.010 C 
ATOM     11  C   LIG    1        2.571  -0.453   0.373  0.00  0.00    -0.003 C 
ATOM     12  C   LIG    1        3.633  -0.031   1.323  0.00  0.00    +0.121 C 
ATOM     13  C   LIG    1        4.009   1.345   0.746  0.00  0.00    +0.032 C 
ATOM     14  C   LIG    1        2.803   1.775  -0.106  0.00  0.00    +0.007 C 
ATOM     15  C   LIG    1        1.764   0.860   0.367  0.00  0.00    +0.001 C 
ATOM     16  C   LIG    1        3.225  -0.686  -0.972  0.00  0.00    +0.014 C 
ATOM     17  C   LIG    1        0.579   0.579  -0.448  0.00  0.00    -0.004 C 
ATOM     18  C   LIG    1        0.062   1.766  -1.158  0.00  0.00    +0.004 C 
ATOM     19  C   LIG    1       -1.137   1.295  -1.980  0.00  0.00    +0.005 C 
ATOM     20  C   LIG    1       -2.129   0.787  -1.005  0.00  0.00    +0.003 C 
ATOM     21  C   LIG    1       -1.346  -1.565  -1.178  0.00  0.00    +0.012 C 
ENDROOT
BRANCH  12  22
ATOM     22  O   LIG    1        4.700  -0.894   1.328  0.00  0.00    -0.391 OA
ATOM     23  H   LIG    1        5.544  -0.461   1.015  0.00  0.00    +0.210 HD
ENDBRANCH  12  22
TORSDOF 1
