REMARK  Name = molecules/UYGONJYYUKVHDD-INIZCTEOSA-N.pdb
REMARK                            x       y       z     vdW  Elec       q    Type
REMARK                         _______ _______ _______ _____ _____    ______ ____
ROOT
ATOM      1  O   LIG    1        1.247   2.406   0.159  0.00  0.00    -0.286 OA
ATOM      2  C   LIG    1        0.704   1.279   0.221  0.00  0.00    +0.204 A 
ATOM      3  C   LIG    1        1.466   0.171   0.522  0.00  0.00    +0.089 A 
ATOM      4  C   LIG    1        0.844  -1.046   0.583  0.00  0.00    +0.105 A 
ATOM      5  N   LIG    1       -0.472  -1.210   0.364  0.00  0.00    -0.348 N 
ATOM      6  C   LIG    1       -1.105  -2.487   0.432  0.00  0.00    +0.149 C 
ATOM      7  C   LIG    1       -1.208  -0.124   0.071  0.00  0.00    +0.055 A 
ATOM      8  C   LIG    1       -2.560  -0.266  -0.158  0.00  0.00    +0.064 A 
ATOM      9  C   LIG    1       -3.380   0.823  -0.466  0.00  0.00    +0.125 A 
ATOM     10  C   LIG    1       -2.821   2.079  -0.544  0.00  0.00    +0.039 A 
ATOM     11  C   LIG    1       -1.465   2.210  -0.313  0.00  0.00    +0.016 A 
ATOM     12  F   LIG    1       -4.712   0.631  -0.684  0.00  0.00    -0.205 F 
ATOM     13  C   LIG    1       -0.648   1.144  -0.009  0.00  0.00    +0.046 A 
ENDROOT
BRANCH   3  14
ATOM     14  S   LIG    1        3.223   0.319   0.825  0.00  0.00    -0.010 S 
ATOM     15  O   LIG    1        3.654  -0.717   1.847  0.00  0.00    -0.157 OA
ATOM     16  C   LIG    1        4.115   0.130  -0.726  0.00  0.00    +0.112 C 
ENDBRANCH   3  14
TORSDOF 1
