REMARK  Name = molecules/UYNVMODNBIQBMV-IIBYNOLFSA-N.pdb
REMARK                            x       y       z     vdW  Elec       q    Type
REMARK                         _______ _______ _______ _____ _____    ______ ____
ROOT
ATOM      1  C   LIG    1        1.963   0.700  -0.017  0.00  0.00    -0.004 C 
ATOM      2  C   LIG    1        0.918   1.721  -0.411  0.00  0.00    +0.019 C 
ATOM      3  C   LIG    1       -0.208   1.021  -1.093  0.00  0.00    +0.085 C 
ATOM      4  N   LIG    1       -0.822  -0.029  -0.330  0.00  0.00    -0.297 NA
ATOM      5  C   LIG    1        0.182  -1.047  -0.130  0.00  0.00    +0.085 C 
ATOM      6  C   LIG    1        1.566  -0.636  -0.575  0.00  0.00    +0.019 C 
ENDROOT
BRANCH   4   7
ATOM      7  C   LIG    1       -1.347   0.373   0.935  0.00  0.00    +0.087 C 
ATOM      8  C   LIG    1       -1.591  -0.806   1.833  0.00  0.00    +0.027 C 
BRANCH   7   9
ATOM      9  C   LIG    1       -2.619   1.185   0.865  0.00  0.00    +0.161 C 
BRANCH   9  10
ATOM     10  C   LIG    1       -3.747   0.456   0.236  0.00  0.00    -0.017 A 
ATOM     11  C   LIG    1       -4.796  -0.086   0.973  0.00  0.00    +0.010 A 
ATOM     12  C   LIG    1       -5.833  -0.762   0.382  0.00  0.00    +0.046 A 
ATOM     13  C   LIG    1       -5.885  -0.938  -0.977  0.00  0.00    +0.117 A 
ATOM     14  C   LIG    1       -4.866  -0.416  -1.737  0.00  0.00    +0.046 A 
ATOM     15  C   LIG    1       -3.831   0.260  -1.133  0.00  0.00    +0.010 A 
BRANCH  13  16
ATOM     16  O   LIG    1       -6.955  -1.635  -1.579  0.00  0.00    -0.507 OA
ATOM     17  H   LIG    1       -7.776  -1.114  -1.869  0.00  0.00    +0.292 HD
ENDBRANCH  13  16
ENDBRANCH   9  10
BRANCH   9  18
ATOM     18  O   LIG    1       -2.445   2.364   0.145  0.00  0.00    -0.386 OA
ATOM     19  H   LIG    1       -3.340   2.675  -0.141  0.00  0.00    +0.210 HD
ENDBRANCH   9  18
ENDBRANCH   7   9
ENDBRANCH   4   7
BRANCH   1  20
ATOM     20  C   LIG    1        3.286   1.177  -0.597  0.00  0.00    +0.038 C 
BRANCH  20  21
ATOM     21  C   LIG    1        4.395   0.250  -0.310  0.00  0.00    -0.047 A 
ATOM     22  C   LIG    1        5.160   0.387   0.830  0.00  0.00    +0.003 A 
ATOM     23  C   LIG    1        6.187  -0.468   1.097  0.00  0.00    +0.000 A 
ATOM     24  C   LIG    1        6.492  -1.496   0.237  0.00  0.00    +0.000 A 
ATOM     25  C   LIG    1        5.730  -1.634  -0.902  0.00  0.00    +0.000 A 
ATOM     26  C   LIG    1        4.688  -0.773  -1.181  0.00  0.00    +0.003 A 
ENDBRANCH  20  21
ENDBRANCH   1  20
TORSDOF 7
