REMARK  Name = molecules/UYXAWHWODHRRMR-LBPRGKRZSA-N.pdb
REMARK                            x       y       z     vdW  Elec       q    Type
REMARK                         _______ _______ _______ _____ _____    ______ ____
ROOT
ATOM      1  C   LIG    1        0.561  -0.191  -0.004  0.00  0.00    +0.142 C 
ATOM      2  C   LIG    1        0.859  -1.368   0.942  0.00  0.00    +0.035 C 
ATOM      3  C   LIG    1        1.458   0.918   0.234  0.00  0.00    +0.242 C 
ATOM      4  O   LIG    1        1.161   2.084   0.528  0.00  0.00    -0.274 OA
ATOM      5  N   LIG    1        2.887   0.647   0.118  0.00  0.00    -0.228 N 
ATOM      6  C   LIG    1        3.804   1.427   0.940  0.00  0.00    +0.143 C 
ATOM      7  C   LIG    1        3.329  -0.351  -0.785  0.00  0.00    +0.315 C 
ATOM      8  O   LIG    1        4.550  -0.612  -0.911  0.00  0.00    -0.252 OA
ATOM      9  N   LIG    1        2.330  -1.033  -1.532  0.00  0.00    -0.239 N 
ATOM     10  H   LIG    1        2.602  -1.792  -2.230  0.00  0.00    +0.159 HD
ATOM     11  C   LIG    1        0.957  -0.726  -1.379  0.00  0.00    +0.239 C 
ATOM     12  O   LIG    1        0.128  -0.875  -2.284  0.00  0.00    -0.274 OA
ENDROOT
BRANCH   1  13
ATOM     13  C   LIG    1       -0.866   0.059   0.047  0.00  0.00    -0.050 C 
ATOM     14  C   LIG    1       -1.424   1.216   0.226  0.00  0.00    -0.026 C 
ATOM     15  C   LIG    1       -2.911   1.490   0.282  0.00  0.00    +0.027 C 
ATOM     16  C   LIG    1       -3.749   0.306   0.033  0.00  0.00    +0.004 C 
ATOM     17  C   LIG    1       -3.045  -0.926   0.561  0.00  0.00    +0.005 C 
ATOM     18  C   LIG    1       -1.756  -1.171  -0.153  0.00  0.00    +0.032 C 
ENDBRANCH   1  13
TORSDOF 1
