REMARK  Name = molecules/UYXHCVFXDBNRQW-UHFFFAOYSA-N.pdb
REMARK                            x       y       z     vdW  Elec       q    Type
REMARK                         _______ _______ _______ _____ _____    ______ ____
ROOT
ATOM      1  C   LIG    1        2.428   0.245  -0.966  0.00  0.00    +0.339 C 
ATOM      2  O   LIG    1        2.294   1.331  -1.542  0.00  0.00    -0.245 OA
ENDROOT
BRANCH   1   3
ATOM      3  C   LIG    1        3.675  -0.084  -0.277  0.00  0.00    +0.059 A 
ATOM      4  C   LIG    1        3.877  -1.269   0.374  0.00  0.00    +0.017 A 
ATOM      5  C   LIG    1        5.058  -1.584   1.028  0.00  0.00    +0.023 A 
ATOM      6  C   LIG    1        6.059  -0.650   1.010  0.00  0.00    +0.025 A 
ATOM      7  C   LIG    1        5.901   0.568   0.362  0.00  0.00    +0.023 A 
ATOM      8  C   LIG    1        4.721   0.839  -0.271  0.00  0.00    +0.017 A 
BRANCH   6   9
ATOM      9  N   LIG    1        7.281  -0.949   1.675  0.00  0.00    -0.358 N 
ATOM     10  H   LIG    1        7.885  -0.190   2.059  0.00  0.00    +0.142 HD
ATOM     11  H   LIG    1        7.604  -1.924   1.797  0.00  0.00    +0.142 HD
ENDBRANCH   6   9
ENDBRANCH   1   3
BRANCH   1  12
ATOM     12  O   LIG    1        1.408  -0.665  -0.966  0.00  0.00    -0.460 OA
BRANCH  12  13
ATOM     13  C   LIG    1        0.162  -0.498  -1.576  0.00  0.00    +0.247 C 
BRANCH  13  14
ATOM     14  C   LIG    1       -0.618   0.683  -1.032  0.00  0.00    +0.122 C 
BRANCH  14  15
ATOM     15  N   LIG    1       -1.843   0.824  -1.655  0.00  0.00    -0.313 NA
ATOM     16  H   LIG    1       -2.190   1.820  -1.755  0.00  0.00    +0.122 HD
BRANCH  15  17
ATOM     17  C   LIG    1       -2.896  -0.061  -1.522  0.00  0.00    +0.081 C 
BRANCH  17  18
ATOM     18  C   LIG    1       -3.606  -0.191  -0.233  0.00  0.00    +0.015 C 
BRANCH  18  19
ATOM     19  C   LIG    1       -4.217   1.153   0.170  0.00  0.00    +0.001 C 
BRANCH  19  20
ATOM     20  C   LIG    1       -4.954   1.039   1.488  0.00  0.00    -0.003 C 
ATOM     21  C   LIG    1       -6.080   0.039   1.430  0.00  0.00    +0.004 C 
ENDBRANCH  19  20
ENDBRANCH  18  19
ENDBRANCH  17  18
ENDBRANCH  15  17
ENDBRANCH  14  15
ENDBRANCH  13  14
ENDBRANCH  12  13
ENDBRANCH   1  12
TORSDOF 10
