REMARK  Name = molecules/UZWDCWONPYILKI-UHFFFAOYSA-N.pdb
REMARK                            x       y       z     vdW  Elec       q    Type
REMARK                         _______ _______ _______ _____ _____    ______ ____
ROOT
ATOM      1  C   LIG    1       -1.395   1.864   0.817  0.00  0.00    +0.155 A 
ATOM      2  C   LIG    1       -2.710   1.746   0.411  0.00  0.00    +0.167 A 
ATOM      3  F   LIG    1       -3.681   2.267   1.173  0.00  0.00    -0.202 F 
ATOM      4  C   LIG    1       -3.060   1.103  -0.761  0.00  0.00    +0.111 A 
ATOM      5  N   LIG    1       -2.078   0.588  -1.511  0.00  0.00    -0.211 NA
ATOM      6  C   LIG    1       -0.762   0.691  -1.131  0.00  0.00    +0.221 A 
ATOM      7  N   LIG    1       -0.477   1.321   0.010  0.00  0.00    -0.220 NA
ENDROOT
BRANCH   4   8
ATOM      8  C   LIG    1       -4.461   1.012  -1.143  0.00  0.00    +0.008 A 
ATOM      9  C   LIG    1       -5.446   0.650  -0.228  0.00  0.00    +0.038 A 
ATOM     10  C   LIG    1       -6.783   0.556  -0.559  0.00  0.00    +0.073 A 
ATOM     11  N   LIG    1       -7.910   0.236   0.114  0.00  0.00    -0.325 N 
ATOM     12  C   LIG    1       -8.977   0.306  -0.723  0.00  0.00    +0.108 A 
ATOM     13  C   LIG    1      -10.392   0.012  -0.300  0.00  0.00    +0.086 C 
ATOM     14  N   LIG    1       -8.531   0.667  -1.917  0.00  0.00    -0.230 NA
ATOM     15  C   LIG    1       -7.184   0.833  -1.866  0.00  0.00    +0.124 A 
ATOM     16  C   LIG    1       -6.215   1.190  -2.767  0.00  0.00    +0.151 A 
ATOM     17  F   LIG    1       -6.585   1.462  -4.042  0.00  0.00    -0.203 F 
ATOM     18  C   LIG    1       -4.882   1.281  -2.426  0.00  0.00    +0.050 A 
BRANCH  11  19
ATOM     19  C   LIG    1       -7.956  -0.125   1.507  0.00  0.00    +0.083 C 
ATOM     20  C   LIG    1       -7.159   0.755   2.411  0.00  0.00    +0.030 C 
ATOM     21  C   LIG    1       -7.565  -1.600   1.673  0.00  0.00    +0.030 C 
ENDBRANCH  11  19
ENDBRANCH   4   8
BRANCH   6  22
ATOM     22  N   LIG    1        0.260   0.139  -1.925  0.00  0.00    -0.268 N 
ATOM     23  H   LIG    1       -0.079  -0.355  -2.820  0.00  0.00    +0.156 HD
BRANCH  22  24
ATOM     24  C   LIG    1        1.636   0.139  -1.722  0.00  0.00    +0.125 A 
ATOM     25  C   LIG    1        2.274   0.722  -0.662  0.00  0.00    +0.044 A 
ATOM     26  C   LIG    1        3.676   0.653  -0.557  0.00  0.00    +0.010 A 
ATOM     27  C   LIG    1        4.429   0.009  -1.500  0.00  0.00    -0.015 A 
ATOM     28  C   LIG    1        3.754  -0.569  -2.557  0.00  0.00    +0.117 A 
ATOM     29  N   LIG    1        2.431  -0.492  -2.637  0.00  0.00    -0.240 NA
BRANCH  27  30
ATOM     30  C   LIG    1        5.901  -0.091  -1.427  0.00  0.00    +0.121 C 
BRANCH  30  31
ATOM     31  N   LIG    1        6.292  -1.415  -1.028  0.00  0.00    -0.296 NA
ATOM     32  C   LIG    1        5.791  -1.730   0.266  0.00  0.00    +0.100 C 
ATOM     33  C   LIG    1        6.885  -1.912   1.296  0.00  0.00    +0.100 C 
ATOM     34  N   LIG    1        8.062  -1.177   1.075  0.00  0.00    -0.300 NA
ATOM     35  C   LIG    1        8.474  -0.884  -0.237  0.00  0.00    +0.100 C 
ATOM     36  C   LIG    1        7.675  -1.709  -1.223  0.00  0.00    +0.100 C 
BRANCH  34  37
ATOM     37  C   LIG    1        8.744  -0.602   2.163  0.00  0.00    +0.081 C 
ATOM     38  C   LIG    1        8.576   0.894   2.308  0.00  0.00    +0.020 C 
ENDBRANCH  34  37
ENDBRANCH  30  31
ENDBRANCH  27  30
ENDBRANCH  22  24
ENDBRANCH   6  22
TORSDOF 7
