REMARK  Name = molecules/VAAUVRVFOQPIGI-SPQHTLEESA-N.pdb
REMARK                            x       y       z     vdW  Elec       q    Type
REMARK                         _______ _______ _______ _____ _____    ______ ____
ROOT
ATOM      1  CA  LIG    1       -0.781   1.806  -1.328  0.00  0.00    +0.123 C 
ATOM      2  C   LIG    1       -1.458   0.962  -0.596  0.00  0.00    -0.021 C 
ATOM      3  C   LIG    1       -0.809  -0.328  -0.139  0.00  0.00    +0.104 C 
ATOM      4  S   LIG    1        0.151  -1.109  -1.442  0.00  0.00    -0.131 S 
ATOM      5  C   LIG    1        0.942   0.214  -2.356  0.00  0.00    +0.169 C 
ATOM      6  CA  LIG    1        2.342   0.485  -1.915  0.00  0.00    +0.191 C 
ATOM      7  C   LIG    1        1.888   1.888  -1.830  0.00  0.00    +0.244 C 
ATOM      8  O   LIG    1        2.540   2.982  -1.844  0.00  0.00    -0.273 OA
ATOM      9  N   LIG    1        0.546   1.468  -1.737  0.00  0.00    -0.249 N 
ENDROOT
BRANCH   6  10
ATOM     10  N   LIG    1        2.706  -0.009  -0.589  0.00  0.00    -0.296 N 
ATOM     11  H   LIG    1        2.038   0.185   0.179  0.00  0.00    +0.150 HD
ATOM     12  C   LIG    1        3.891  -0.710  -0.337  0.00  0.00    +0.268 C 
ATOM     13  O   LIG    1        4.633  -0.881  -1.378  0.00  0.00    -0.268 OA
BRANCH  12  14
ATOM     14  C   LIG    1        4.408  -1.261   0.876  0.00  0.00    +0.190 C 
ATOM     15  N   LIG    1        3.780  -1.166   1.976  0.00  0.00    -0.078 NA
BRANCH  14  16
ATOM     16  C   LIG    1        5.737  -1.984   0.872  0.00  0.00    +0.107 A 
ATOM     17  C   LIG    1        6.255  -2.524   2.024  0.00  0.00    +0.078 A 
ATOM     18  S   LIG    1        7.724  -3.198   1.470  0.00  0.00    -0.060 S 
ATOM     19  C   LIG    1        7.598  -2.760  -0.175  0.00  0.00    +0.156 A 
ATOM     20  N   LIG    1        6.444  -2.124  -0.211  0.00  0.00    -0.223 NA
BRANCH  19  21
ATOM     21  N   LIG    1        8.517  -3.014  -1.267  0.00  0.00    -0.338 N 
ATOM     22  H   LIG    1        9.523  -2.823  -1.140  0.00  0.00    +0.144 HD
ATOM     23  H   LIG    1        8.104  -3.385  -2.143  0.00  0.00    +0.144 HD
ENDBRANCH  19  21
ENDBRANCH  14  16
BRANCH  15  24
ATOM     24  O   LIG    1        2.603  -0.562   2.144  0.00  0.00    -0.396 OA
ATOM     25  C   LIG    1        2.288   0.358   3.174  0.00  0.00    +0.313 C 
ENDBRANCH  15  24
ENDBRANCH  12  14
ENDBRANCH   6  10
BRANCH   1  26
ATOM     26  C   LIG    1       -1.324   3.085  -1.770  0.00  0.00    +0.351 C 
ATOM     27  O   LIG    1       -0.567   3.857  -2.477  0.00  0.00    -0.244 OA
BRANCH  26  28
ATOM     28  OXT LIG    1       -2.562   3.607  -1.537  0.00  0.00    -0.476 OA
ATOM     29  HXT LIG    1       -2.752   4.463  -1.032  0.00  0.00    +0.295 HD
ENDBRANCH  26  28
ENDBRANCH   1  26
BRANCH   2  30
ATOM     30  C   LIG    1       -2.836   1.168  -0.122  0.00  0.00    +0.111 C 
BRANCH  30  31
ATOM     31  S   LIG    1       -3.929  -0.143  -0.769  0.00  0.00    -0.082 S 
BRANCH  31  32
ATOM     32  C   LIG    1       -5.586   0.185  -0.148  0.00  0.00    +0.187 A 
ATOM     33  N   LIG    1       -6.026  -0.305   1.007  0.00  0.00    -0.264 N 
ATOM     34  C   LIG    1       -5.136  -1.132   1.792  0.00  0.00    +0.173 C 
ATOM     35  N   LIG    1       -7.234  -0.067   1.462  0.00  0.00    -0.257 N 
ATOM     36  H   LIG    1       -7.520  -0.482   2.378  0.00  0.00    +0.190 HD
ATOM     37  C   LIG    1       -8.071   0.693   0.755  0.00  0.00    +0.330 A 
ATOM     38  O   LIG    1       -9.224   0.930   1.173  0.00  0.00    -0.260 OA
ATOM     39  C   LIG    1       -7.631   1.212  -0.449  0.00  0.00    +0.338 A 
ATOM     40  O   LIG    1       -8.429   1.920  -1.094  0.00  0.00    -0.260 OA
ATOM     41  N   LIG    1       -6.390   0.954  -0.893  0.00  0.00    -0.179 NA
ENDBRANCH  31  32
ENDBRANCH  30  31
ENDBRANCH   2  30
TORSDOF 10
