REMARK  Name = molecules/VABCILAOYCMVPS-OAHLLOKOSA-N.pdb
REMARK                            x       y       z     vdW  Elec       q    Type
REMARK                         _______ _______ _______ _____ _____    ______ ____
ROOT
ATOM      1  C   LIG    1       -0.543   0.856  -0.639  0.00  0.00    +0.067 C 
ENDROOT
BRANCH   1   2
ATOM      2  C   LIG    1        0.832   0.324  -0.631  0.00  0.00    +0.087 A 
ATOM      3  C   LIG    1        1.504   0.042   0.541  0.00  0.00    +0.138 A 
ATOM      4  C   LIG    1        2.791  -0.456   0.434  0.00  0.00    +0.059 A 
ATOM      5  C   LIG    1        3.544  -0.769   1.555  0.00  0.00    +0.015 A 
ATOM      6  C   LIG    1        4.836  -1.270   1.459  0.00  0.00    +0.001 A 
ATOM      7  C   LIG    1        5.428  -1.478   0.235  0.00  0.00    +0.004 A 
ATOM      8  C   LIG    1        4.703  -1.175  -0.894  0.00  0.00    +0.047 A 
ATOM      9  C   LIG    1        3.412  -0.676  -0.786  0.00  0.00    +0.143 A 
ATOM     10  O   LIG    1        2.711  -0.383  -1.867  0.00  0.00    -0.422 OA
ATOM     11  C   LIG    1        1.493   0.089  -1.842  0.00  0.00    +0.345 A 
ATOM     12  O   LIG    1        0.893   0.342  -2.918  0.00  0.00    -0.245 OA
BRANCH   3  13
ATOM     13  O   LIG    1        0.910   0.251   1.763  0.00  0.00    -0.506 OA
ATOM     14  H   LIG    1        1.243   0.105   2.671  0.00  0.00    +0.292 HD
ENDBRANCH   3  13
ENDBRANCH   1   2
BRANCH   1  15
ATOM     15  C   LIG    1       -1.550  -0.119  -0.230  0.00  0.00    -0.039 A 
ATOM     16  C   LIG    1       -2.114  -0.241   1.012  0.00  0.00    +0.006 A 
ATOM     17  C   LIG    1       -3.052  -1.168   1.331  0.00  0.00    +0.033 A 
ATOM     18  C   LIG    1       -3.482  -2.056   0.360  0.00  0.00    +0.126 A 
ATOM     19  C   LIG    1       -2.942  -1.977  -0.923  0.00  0.00    +0.033 A 
ATOM     20  C   LIG    1       -1.997  -1.020  -1.188  0.00  0.00    +0.006 A 
BRANCH  18  21
ATOM     21  N   LIG    1       -4.459  -3.020   0.694  0.00  0.00    +0.056 N 
ATOM     22  O   LIG    1       -4.913  -3.059   1.840  0.00  0.00    -0.126 OA
ATOM     23  O   LIG    1       -4.896  -3.899  -0.243  0.00  0.00    -0.126 OA
ENDBRANCH  18  21
ENDBRANCH   1  15
BRANCH   1  24
ATOM     24  C   LIG    1       -0.589   2.171   0.101  0.00  0.00    +0.087 C 
BRANCH  24  25
ATOM     25  C   LIG    1       -1.878   2.881  -0.065  0.00  0.00    +0.131 C 
ATOM     26  O   LIG    1       -2.893   2.623   0.551  0.00  0.00    -0.298 OA
ATOM     27  C   LIG    1       -1.957   3.992  -1.051  0.00  0.00    +0.086 C 
ENDBRANCH  24  25
ENDBRANCH   1  24
TORSDOF 6
