REMARK  Name = molecules/VAMSVIZLXJOLHZ-QWFSEIHXSA-N.pdb
REMARK                            x       y       z     vdW  Elec       q    Type
REMARK                         _______ _______ _______ _____ _____    ______ ____
ROOT
ATOM      1  N   LIG    1        0.374  -0.169  -0.730  0.00  0.00    -0.297 N 
ATOM      2  C   LIG    1       -0.899   0.302  -0.416  0.00  0.00    +0.268 C 
ATOM      3  O   LIG    1       -0.973   1.624  -0.298  0.00  0.00    -0.268 OA
ATOM      4  H   LIG    1        0.615  -1.137  -0.867  0.00  0.00    +0.150 HD
ENDROOT
BRANCH   1   5
ATOM      5  C   LIG    1        1.476   0.779  -0.903  0.00  0.00    +0.187 C 
ATOM      6  C   LIG    1        2.446   0.813   0.272  0.00  0.00    +0.088 C 
ATOM      7  C   LIG    1        1.980   0.220   1.546  0.00  0.00    +0.036 C 
ATOM      8  C   LIG    1        3.010   2.210   0.420  0.00  0.00    +0.036 C 
ATOM      9  N   LIG    1        3.254  -0.071  -0.581  0.00  0.00    -0.144 N 
ATOM     10  C   LIG    1        2.571   0.343  -1.752  0.00  0.00    +0.263 C 
ATOM     11  O   LIG    1        2.829   0.331  -2.997  0.00  0.00    -0.271 OA
BRANCH   9  12
ATOM     12  O   LIG    1        4.235  -0.904  -0.257  0.00  0.00    -0.097 OA
BRANCH  12  13
ATOM     13  S   LIG    1        4.696  -1.829  -1.541  0.00  0.00    +0.227 S 
ATOM     14  O   LIG    1        5.861  -2.748  -1.153  0.00  0.00    -0.116 OA
ATOM     15  O   LIG    1        3.549  -2.781  -1.877  0.00  0.00    -0.116 OA
BRANCH  13  16
ATOM     16  O   LIG    1        5.061  -0.993  -2.925  0.00  0.00    -0.230 OA
ATOM     17  H   LIG    1        6.040  -0.813  -2.920  0.00  0.00    +0.247 HD
ENDBRANCH  13  16
ENDBRANCH  12  13
ENDBRANCH   9  12
ENDBRANCH   1   5
BRANCH   2  18
ATOM     18  C   LIG    1       -2.104  -0.414  -0.210  0.00  0.00    +0.190 C 
ATOM     19  N   LIG    1       -3.163   0.365   0.081  0.00  0.00    -0.077 NA
BRANCH  18  20
ATOM     20  C   LIG    1       -2.372  -1.872  -0.302  0.00  0.00    +0.107 A 
ATOM     21  C   LIG    1       -1.415  -2.840  -0.320  0.00  0.00    +0.078 A 
ATOM     22  S   LIG    1       -2.376  -4.288  -0.375  0.00  0.00    -0.060 S 
ATOM     23  C   LIG    1       -3.912  -3.554  -0.370  0.00  0.00    +0.156 A 
ATOM     24  N   LIG    1       -3.617  -2.291  -0.328  0.00  0.00    -0.223 NA
BRANCH  23  25
ATOM     25  N   LIG    1       -5.224  -4.180  -0.406  0.00  0.00    -0.338 N 
ATOM     26  H   LIG    1       -5.445  -4.939   0.286  0.00  0.00    +0.144 HD
ATOM     27  H   LIG    1       -5.939  -3.905  -1.083  0.00  0.00    +0.144 HD
ENDBRANCH  23  25
ENDBRANCH  18  20
BRANCH  19  28
ATOM     28  O   LIG    1       -3.087   1.714   0.171  0.00  0.00    -0.382 OA
BRANCH  28  29
ATOM     29  C   LIG    1       -3.307   2.276   1.456  0.00  0.00    +0.382 C 
BRANCH  29  30
ATOM     30  C   LIG    1       -3.172   3.750   1.386  0.00  0.00    +0.345 C 
ATOM     31  O   LIG    1       -2.835   4.259   0.281  0.00  0.00    -0.247 OA
BRANCH  30  32
ATOM     32  O   LIG    1       -3.424   4.481   2.532  0.00  0.00    -0.478 OA
ATOM     33  H   LIG    1       -3.853   5.389   2.496  0.00  0.00    +0.295 HD
ENDBRANCH  30  32
ENDBRANCH  29  30
ENDBRANCH  28  29
ENDBRANCH  19  28
ENDBRANCH   2  18
TORSDOF 11
