REMARK  Name = molecules/VAOCPAMSLUNLGC-UHFFFAOYSA-N.pdb
REMARK                            x       y       z     vdW  Elec       q    Type
REMARK                         _______ _______ _______ _____ _____    ______ ____
ROOT
ATOM      1  C   LIG    1        1.550  -0.313   0.336  0.00  0.00    +0.216 A 
ATOM      2  C   LIG    1        2.012   0.716   1.156  0.00  0.00    +0.164 A 
ATOM      3  N   LIG    1        1.135   1.727   1.104  0.00  0.00    -0.239 NA
ATOM      4  C   LIG    1        0.121   1.399   0.284  0.00  0.00    +0.108 A 
ATOM      5  C   LIG    1       -1.071   2.250  -0.053  0.00  0.00    +0.086 C 
ATOM      6  N   LIG    1        0.398   0.150  -0.172  0.00  0.00    -0.307 N 
ENDROOT
BRANCH   1   7
ATOM      7  N   LIG    1        2.186  -1.566   0.112  0.00  0.00    +0.075 N 
ATOM      8  O   LIG    1        3.270  -1.848   0.668  0.00  0.00    -0.125 OA
ATOM      9  O   LIG    1        1.655  -2.518  -0.709  0.00  0.00    -0.125 OA
ENDBRANCH   1   7
BRANCH   6  10
ATOM     10  C   LIG    1       -0.467  -0.571  -1.091  0.00  0.00    +0.153 C 
BRANCH  10  11
ATOM     11  C   LIG    1       -1.479  -1.413  -0.330  0.00  0.00    +0.177 C 
BRANCH  11  12
ATOM     12  O   LIG    1       -2.301  -0.680   0.491  0.00  0.00    -0.393 OA
ATOM     13  H   LIG    1       -1.872  -0.406   1.339  0.00  0.00    +0.209 HD
ENDBRANCH  11  12
ENDBRANCH  10  11
ENDBRANCH   6  10
TORSDOF 4
