REMARK  Name = molecules/VBHQKCBVWWUUKN-KZNAEPCWSA-N.pdb
REMARK                            x       y       z     vdW  Elec       q    Type
REMARK                         _______ _______ _______ _____ _____    ______ ____
ROOT
ATOM      1  O   LIG    1       -0.918  -0.796   1.174  0.00  0.00    -0.375 OA
ENDROOT
BRANCH   1   2
ATOM      2  C   LIG    1       -1.643   0.354   1.276  0.00  0.00    +0.135 C 
ATOM      3  C   LIG    1       -1.834   0.750   2.763  0.00  0.00    +0.033 C 
ATOM      4  C   LIG    1       -2.327   2.155   2.771  0.00  0.00    +0.003 C 
ATOM      5  C   LIG    1       -3.459   2.458   1.850  0.00  0.00    +0.002 C 
ATOM      6  C   LIG    1       -3.321   1.858   0.469  0.00  0.00    +0.021 C 
ATOM      7  C   LIG    1       -3.005   0.368   0.695  0.00  0.00    +0.085 C 
BRANCH   7   8
ATOM      8  N   LIG    1       -3.278  -0.452  -0.415  0.00  0.00    -0.294 NA
ATOM      9  C   LIG    1       -4.671  -0.479  -0.745  0.00  0.00    +0.116 C 
ATOM     10  C   LIG    1       -4.692  -1.481  -1.900  0.00  0.00    +0.130 C 
ATOM     11  C   LIG    1       -3.412  -1.120  -2.610  0.00  0.00    +0.048 C 
ATOM     12  C   LIG    1       -2.615  -0.230  -1.637  0.00  0.00    +0.087 C 
BRANCH  10  13
ATOM     13  O   LIG    1       -4.644  -2.772  -1.373  0.00  0.00    -0.390 OA
ATOM     14  H   LIG    1       -4.995  -2.719  -0.453  0.00  0.00    +0.210 HD
ENDBRANCH  10  13
ENDBRANCH   7   8
ENDBRANCH   1   2
BRANCH   1  15
ATOM     15  C   LIG    1        0.323  -0.504   0.626  0.00  0.00    +0.165 C 
BRANCH  15  16
ATOM     16  C   LIG    1        1.206  -1.726   0.453  0.00  0.00    +0.063 C 
BRANCH  16  17
ATOM     17  C   LIG    1        2.461  -1.229  -0.148  0.00  0.00    -0.042 A 
ATOM     18  C   LIG    1        3.512  -0.807   0.630  0.00  0.00    +0.053 A 
ATOM     19  C   LIG    1        4.675  -0.335   0.076  0.00  0.00    +0.162 A 
ATOM     20  C   LIG    1        4.853  -0.257  -1.320  0.00  0.00    +0.161 A 
ATOM     21  C   LIG    1        3.755  -0.698  -2.086  0.00  0.00    +0.049 A 
ATOM     22  C   LIG    1        2.602  -1.167  -1.507  0.00  0.00    +0.007 A 
BRANCH  19  23
ATOM     23  O   LIG    1        5.705   0.079   0.874  0.00  0.00    -0.491 OA
ATOM     24  C   LIG    1        5.590   0.026   2.280  0.00  0.00    +0.277 C 
ENDBRANCH  19  23
BRANCH  20  25
ATOM     25  O   LIG    1        5.926   0.182  -1.888  0.00  0.00    -0.491 OA
ATOM     26  C   LIG    1        6.994   0.618  -2.457  0.00  0.00    +0.277 C 
ENDBRANCH  20  25
ENDBRANCH  16  17
ENDBRANCH  15  16
ENDBRANCH   1  15
TORSDOF 8
