REMARK  Name = molecules/VBRVDDFOBZNCPF-BRSFZVHSSA-N.pdb
REMARK                            x       y       z     vdW  Elec       q    Type
REMARK                         _______ _______ _______ _____ _____    ______ ____
ROOT
ATOM      1  C   LIG    1       -0.089  -0.575  -1.985  0.00  0.00    +0.015 C 
ATOM      2  C   LIG    1        0.074   0.284  -0.777  0.00  0.00    +0.012 C 
ATOM      3  C   LIG    1        0.763  -0.424   0.375  0.00  0.00    +0.006 C 
ATOM      4  C   LIG    1       -0.131  -1.574   0.609  0.00  0.00    +0.053 C 
ATOM      5  C   LIG    1       -1.526  -1.018   0.285  0.00  0.00    +0.218 C 
ATOM      6  C   LIG    1        2.201  -0.700   0.108  0.00  0.00    +0.001 C 
ATOM      7  C   LIG    1        2.831  -1.225   1.375  0.00  0.00    +0.009 C 
ATOM      8  C   LIG    1        4.129  -0.585   1.744  0.00  0.00    +0.036 C 
ATOM      9  C   LIG    1        4.950  -0.282   0.543  0.00  0.00    -0.040 A 
ATOM     10  C   LIG    1        6.293  -0.593   0.486  0.00  0.00    +0.049 A 
ATOM     11  C   LIG    1        7.012  -0.281  -0.674  0.00  0.00    +0.117 A 
ATOM     12  C   LIG    1        6.358   0.331  -1.731  0.00  0.00    +0.046 A 
ATOM     13  C   LIG    1        4.993   0.633  -1.641  0.00  0.00    +0.008 A 
ATOM     14  C   LIG    1        4.288   0.326  -0.502  0.00  0.00    -0.041 A 
ATOM     15  C   LIG    1        2.853   0.593  -0.281  0.00  0.00    +0.023 C 
ATOM     16  C   LIG    1        2.187   1.311  -1.399  0.00  0.00    +0.009 C 
ATOM     17  C   LIG    1       -1.306   0.431  -0.137  0.00  0.00    +0.223 C 
ATOM     18  C   LIG    1        0.755   1.580  -1.007  0.00  0.00    +0.011 C 
ENDROOT
BRANCH  11  19
ATOM     19  O   LIG    1        8.372  -0.591  -0.743  0.00  0.00    -0.507 OA
ATOM     20  H   LIG    1        8.843  -1.036   0.030  0.00  0.00    +0.292 HD
ENDBRANCH  11  19
BRANCH   5  21
ATOM     21  O   LIG    1       -2.353  -1.097   1.410  0.00  0.00    -0.458 OA
BRANCH  21  22
ATOM     22  C   LIG    1       -3.563  -1.784   1.304  0.00  0.00    +0.308 C 
ATOM     23  O   LIG    1       -3.873  -2.313   0.210  0.00  0.00    -0.251 OA
BRANCH  22  24
ATOM     24  C   LIG    1       -4.492  -1.907   2.447  0.00  0.00    +0.132 C 
BRANCH  24  25
ATOM     25  C   LIG    1       -5.659  -2.768   2.070  0.00  0.00    +0.131 C 
BRANCH  25  26
ATOM     26  C   LIG    1       -5.226  -4.130   1.733  0.00  0.00    +0.305 C 
ATOM     27  O   LIG    1       -4.953  -4.582   0.600  0.00  0.00    -0.251 OA
BRANCH  26  28
ATOM     28  O   LIG    1       -5.094  -5.057   2.785  0.00  0.00    -0.481 OA
ATOM     29  H   LIG    1       -5.881  -5.588   3.132  0.00  0.00    +0.295 HD
ENDBRANCH  26  28
ENDBRANCH  25  26
ENDBRANCH  24  25
ENDBRANCH  22  24
ENDBRANCH  21  22
ENDBRANCH   5  21
BRANCH  17  30
ATOM     30  O   LIG    1       -2.248   0.906  -1.042  0.00  0.00    -0.457 OA
BRANCH  30  31
ATOM     31  C   LIG    1       -3.006   2.011  -0.713  0.00  0.00    +0.308 C 
ATOM     32  O   LIG    1       -2.838   2.563   0.398  0.00  0.00    -0.251 OA
BRANCH  31  33
ATOM     33  C   LIG    1       -4.040   2.613  -1.615  0.00  0.00    +0.132 C 
BRANCH  33  34
ATOM     34  C   LIG    1       -3.454   3.884  -2.255  0.00  0.00    +0.131 C 
BRANCH  34  35
ATOM     35  C   LIG    1       -3.119   4.792  -1.145  0.00  0.00    +0.305 C 
ATOM     36  O   LIG    1       -3.995   5.142  -0.336  0.00  0.00    -0.251 OA
BRANCH  35  37
ATOM     37  O   LIG    1       -1.827   5.246  -1.010  0.00  0.00    -0.481 OA
ATOM     38  H   LIG    1       -1.089   4.711  -0.554  0.00  0.00    +0.295 HD
ENDBRANCH  35  37
ENDBRANCH  34  35
ENDBRANCH  33  34
ENDBRANCH  31  33
ENDBRANCH  30  31
ENDBRANCH  17  30
TORSDOF 13
