REMARK  Name = molecules/VBZDETYCYXPOAK-HVIDBACLSA-N.pdb
REMARK                            x       y       z     vdW  Elec       q    Type
REMARK                         _______ _______ _______ _____ _____    ______ ____
ROOT
ATOM      1  C   LIG    1        0.464  -0.264  -1.493  0.00  0.00    +0.106 C 
ATOM      2  C   LIG    1        1.402  -0.835  -2.503  0.00  0.00    +0.033 C 
ENDROOT
BRANCH   1   3
ATOM      3  N   LIG    1        0.999   0.849  -0.768  0.00  0.00    -0.288 NA
ATOM      4  C   LIG    1        2.183   0.806  -0.277  0.00  0.00    +0.132 C 
BRANCH   4   5
ATOM      5  C   LIG    1        2.773   1.943   0.483  0.00  0.00    +0.225 C 
ATOM      6 CL   LIG    1        4.103   1.353   1.529  0.00  0.00    -0.077 Cl
ATOM      7 CL   LIG    1        1.541   2.730   1.513  0.00  0.00    -0.077 Cl
ATOM      8 CL   LIG    1        3.402   3.127  -0.680  0.00  0.00    -0.077 Cl
ENDBRANCH   4   5
ENDBRANCH   1   3
BRANCH   1   9
ATOM      9  C   LIG    1       -0.041  -1.285  -0.504  0.00  0.00    +0.061 C 
BRANCH   9  15
ATOM     10  C   LIG    1       -2.431  -0.850   0.002  0.00  0.00    +0.004 A 
ATOM     11  C   LIG    1       -3.421  -0.350   0.823  0.00  0.00    +0.000 A 
ATOM     12  C   LIG    1       -3.044   0.245   2.010  0.00  0.00    +0.000 A 
ATOM     13  C   LIG    1       -1.712   0.343   2.379  0.00  0.00    +0.000 A 
ATOM     14  C   LIG    1       -0.728  -0.159   1.554  0.00  0.00    +0.004 A 
ATOM     15  C   LIG    1       -1.097  -0.753   0.369  0.00  0.00    -0.045 A 
ENDBRANCH   9  15
ENDBRANCH   1   9
TORSDOF 4
