REMARK  Name = molecules/VCCZBYPHZRWKFY-XIKOKIGWSA-N.pdb
REMARK                            x       y       z     vdW  Elec       q    Type
REMARK                         _______ _______ _______ _____ _____    ______ ____
ROOT
ATOM      1  C   LIG    1       -2.660  -2.049   1.972  0.00  0.00    +0.039 C 
ATOM      2  C   LIG    1       -2.226  -1.071   0.927  0.00  0.00    +0.132 C 
ATOM      3  O   LIG    1       -1.118  -0.340   1.237  0.00  0.00    -0.346 OA
ATOM      4  C   LIG    1       -0.391  -0.099   0.048  0.00  0.00    +0.178 C 
ATOM      5  C   LIG    1        0.996  -0.505   0.355  0.00  0.00    +0.026 A 
ATOM      6  C   LIG    1        1.255  -0.713   1.706  0.00  0.00    +0.030 A 
ATOM      7  C   LIG    1        2.527  -1.087   2.107  0.00  0.00    +0.041 A 
ATOM      8 CL   LIG    1        2.816  -1.339   3.812  0.00  0.00    -0.084 Cl
ATOM      9  C   LIG    1        3.528  -1.252   1.181  0.00  0.00    +0.022 A 
ATOM     10  C   LIG    1        3.309  -1.057  -0.156  0.00  0.00    +0.025 A 
ATOM     11  C   LIG    1        2.019  -0.679  -0.552  0.00  0.00    +0.041 A 
ATOM     12  N   LIG    1        1.901  -0.517  -1.967  0.00  0.00    -0.284 N 
ATOM     13  H   LIG    1        2.813  -0.377  -2.485  0.00  0.00    +0.155 HD
ATOM     14  C   LIG    1        0.695  -0.528  -2.725  0.00  0.00    +0.231 C 
ATOM     15  C   LIG    1       -0.607  -1.025  -2.235  0.00  0.00    +0.184 C 
ATOM     16  O   LIG    1        0.779  -0.070  -3.909  0.00  0.00    -0.274 OA
ATOM     17  N   LIG    1       -1.067  -0.689  -0.995  0.00  0.00    -0.256 NA
ATOM     18  C   LIG    1       -1.816  -1.767  -0.379  0.00  0.00    +0.119 C 
ENDROOT
BRANCH   4  19
ATOM     19  C   LIG    1       -0.407   1.409  -0.080  0.00  0.00    +0.004 A 
ATOM     20  C   LIG    1        0.067   2.183   0.953  0.00  0.00    +0.008 A 
ATOM     21  C   LIG    1        0.068   3.559   0.886  0.00  0.00    +0.000 A 
ATOM     22  C   LIG    1       -0.416   4.184  -0.238  0.00  0.00    +0.000 A 
ATOM     23  C   LIG    1       -0.887   3.415  -1.264  0.00  0.00    +0.000 A 
ATOM     24  C   LIG    1       -0.888   2.039  -1.198  0.00  0.00    +0.008 A 
ENDBRANCH   4  19
TORSDOF 1
