REMARK  Name = molecules/VCMIRXRRQJNZJT-KANKAIPDSA-N.pdb
REMARK                            x       y       z     vdW  Elec       q    Type
REMARK                         _______ _______ _______ _____ _____    ______ ____
ROOT
ATOM      1  C   LIG    1        5.131  -0.672   0.067  0.00  0.00    +0.124 C 
ATOM      2  C   LIG    1        5.701  -1.338   1.299  0.00  0.00    +0.030 C 
ATOM      3  C   LIG    1        6.865  -0.523   1.778  0.00  0.00    +0.005 C 
ATOM      4  C   LIG    1        6.439   0.866   2.204  0.00  0.00    +0.088 C 
ATOM      5  N   LIG    1        5.820   1.479   1.074  0.00  0.00    -0.297 NA
ATOM      6  C   LIG    1        4.618   2.198   1.373  0.00  0.00    +0.089 C 
ATOM      7  C   LIG    1        3.553   1.385   2.022  0.00  0.00    +0.053 C 
ATOM      8  C   LIG    1        3.027   0.397   1.031  0.00  0.00    -0.017 A 
ATOM      9  C   LIG    1        1.665   0.198   0.785  0.00  0.00    +0.007 A 
ATOM     10  C   LIG    1        0.575   0.791   1.326  0.00  0.00    +0.056 A 
ATOM     11  C   LIG    1       -0.699   0.432   0.929  0.00  0.00    +0.125 A 
ATOM     12  C   LIG    1       -0.922  -0.542  -0.030  0.00  0.00    +0.005 A 
ATOM     13  C   LIG    1        0.211  -1.124  -0.559  0.00  0.00    +0.034 A 
ATOM     14  C   LIG    1        1.489  -0.773  -0.172  0.00  0.00    +0.047 A 
ATOM     15  N   LIG    1        2.725  -1.172  -0.515  0.00  0.00    -0.357 N 
ATOM     16  H   LIG    1        2.949  -1.911  -1.230  0.00  0.00    +0.166 HD
ATOM     17  C   LIG    1        7.838  -0.340   0.634  0.00  0.00    +0.010 C 
ATOM     18  C   LIG    1        7.216   0.408  -0.526  0.00  0.00    +0.008 C 
ATOM     19  C   LIG    1        3.653  -0.491   0.185  0.00  0.00    +0.039 A 
ATOM     20  C   LIG    1        5.766   0.693  -0.111  0.00  0.00    +0.082 C 
ENDROOT
BRANCH  12  21
ATOM     21  C   LIG    1       -2.318  -0.937  -0.420  0.00  0.00    +0.070 C 
ATOM     22  C   LIG    1       -2.938  -1.985   0.366  0.00  0.00    +0.023 C 
ATOM     23  C   LIG    1       -4.292  -1.989   0.889  0.00  0.00    +0.032 C 
ATOM     24  C   LIG    1       -4.587  -1.298   2.160  0.00  0.00    -0.056 C 
ATOM     25  C   LIG    1       -3.650  -0.969   3.021  0.00  0.00    -0.029 C 
ATOM     26  C   LIG    1       -4.061  -0.263   4.294  0.00  0.00    +0.035 C 
ATOM     27  C   LIG    1       -5.996  -0.985   2.487  0.00  0.00    +0.115 C 
ATOM     28  N   LIG    1       -6.862  -0.702   1.406  0.00  0.00    -0.297 NA
ATOM     29  C   LIG    1       -8.002  -1.586   1.311  0.00  0.00    +0.105 C 
ATOM     30  C   LIG    1       -6.176  -0.565   0.128  0.00  0.00    +0.075 C 
ATOM     31  C   LIG    1       -5.402   0.689   0.200  0.00  0.00    +0.057 C 
ATOM     32  C   LIG    1       -4.294   0.873  -0.720  0.00  0.00    -0.017 A 
ATOM     33  C   LIG    1       -4.376   1.910  -1.611  0.00  0.00    +0.003 A 
ATOM     34  C   LIG    1       -5.298   2.889  -1.883  0.00  0.00    +0.010 A 
ATOM     35  C   LIG    1       -5.099   3.831  -2.878  0.00  0.00    +0.001 A 
ATOM     36  C   LIG    1       -3.944   3.793  -3.625  0.00  0.00    +0.002 A 
ATOM     37  C   LIG    1       -3.006   2.824  -3.374  0.00  0.00    +0.026 A 
ATOM     38  C   LIG    1       -3.223   1.894  -2.377  0.00  0.00    +0.047 A 
ATOM     39  N   LIG    1       -2.505   0.874  -1.931  0.00  0.00    -0.357 N 
ATOM     40  H   LIG    1       -1.557   0.632  -2.351  0.00  0.00    +0.166 HD
ATOM     41  C   LIG    1       -5.431  -1.847  -0.090  0.00  0.00    +0.122 C 
ATOM     42  C   LIG    1       -3.094   0.202  -0.920  0.00  0.00    +0.028 A 
BRANCH  41  43
ATOM     43  C   LIG    1       -5.110  -2.151  -1.488  0.00  0.00    +0.312 C 
ATOM     44  O   LIG    1       -5.425  -1.343  -2.385  0.00  0.00    -0.250 OA
BRANCH  43  45
ATOM     45  O   LIG    1       -4.467  -3.305  -1.880  0.00  0.00    -0.468 OA
ATOM     46  C   LIG    1       -4.170  -3.574  -3.259  0.00  0.00    +0.280 C 
ENDBRANCH  43  45
ENDBRANCH  41  43
ENDBRANCH  12  21
BRANCH  11  47
ATOM     47  O   LIG    1       -1.760   1.056   1.496  0.00  0.00    -0.495 OA
ATOM     48  C   LIG    1       -1.574   2.053   2.475  0.00  0.00    +0.277 C 
ENDBRANCH  11  47
BRANCH  18  49
ATOM     49  C   LIG    1        7.898   1.751  -0.666  0.00  0.00    +0.002 C 
ATOM     50  C   LIG    1        7.227   2.607  -1.705  0.00  0.00    +0.004 C 
ENDBRANCH  18  49
BRANCH   1  51
ATOM     51  C   LIG    1        5.405  -1.512  -1.101  0.00  0.00    +0.320 C 
ATOM     52  O   LIG    1        6.000  -2.606  -0.956  0.00  0.00    -0.250 OA
BRANCH  51  53
ATOM     53  O   LIG    1        5.030  -1.145  -2.382  0.00  0.00    -0.467 OA
ATOM     54  C   LIG    1        5.328  -2.008  -3.471  0.00  0.00    +0.280 C 
ENDBRANCH  51  53
ENDBRANCH   1  51
TORSDOF 7
