REMARK  Name = molecules/VDANGULDQQJODZ-UHFFFAOYSA-N.pdb
REMARK                            x       y       z     vdW  Elec       q    Type
REMARK                         _______ _______ _______ _____ _____    ______ ____
ROOT
ATOM      1  C   LIG    1        1.472   0.818  -0.552  0.00  0.00    +0.341 C 
ATOM      2  O   LIG    1        1.121   1.689  -1.351  0.00  0.00    -0.245 OA
ENDROOT
BRANCH   1   3
ATOM      3  C   LIG    1        2.890   0.554  -0.365  0.00  0.00    +0.077 A 
ATOM      4  C   LIG    1        3.269  -0.687   0.117  0.00  0.00    +0.018 A 
ATOM      5  C   LIG    1        4.576  -1.070   0.289  0.00  0.00    +0.023 A 
ATOM      6  C   LIG    1        5.539  -0.137  -0.048  0.00  0.00    +0.026 A 
ATOM      7  C   LIG    1        5.194   1.095  -0.521  0.00  0.00    +0.043 A 
ATOM      8  C   LIG    1        3.857   1.475  -0.694  0.00  0.00    +0.057 A 
ATOM      9 CL   LIG    1        3.458   3.079  -1.280  0.00  0.00    -0.083 Cl
BRANCH   6  10
ATOM     10  N   LIG    1        6.906  -0.532   0.087  0.00  0.00    -0.358 N 
ATOM     11  H   LIG    1        7.398  -0.177   0.920  0.00  0.00    +0.142 HD
ATOM     12  H   LIG    1        7.299  -1.137  -0.648  0.00  0.00    +0.142 HD
ENDBRANCH   6  10
ENDBRANCH   1   3
BRANCH   1  13
ATOM     13  O   LIG    1        0.511   0.084   0.176  0.00  0.00    -0.460 OA
BRANCH  13  14
ATOM     14  C   LIG    1       -0.841   0.336  -0.042  0.00  0.00    +0.248 C 
BRANCH  14  15
ATOM     15  C   LIG    1       -1.716  -0.463   0.908  0.00  0.00    +0.125 C 
BRANCH  15  16
ATOM     16  N   LIG    1       -3.107  -0.229   0.648  0.00  0.00    -0.300 NA
BRANCH  16  17
ATOM     17  C   LIG    1       -3.392   1.180   0.509  0.00  0.00    +0.081 C 
ATOM     18  C   LIG    1       -4.858   1.381   0.160  0.00  0.00    +0.020 C 
ENDBRANCH  16  17
BRANCH  16  19
ATOM     19  C   LIG    1       -3.605  -0.946  -0.527  0.00  0.00    +0.081 C 
ATOM     20  C   LIG    1       -3.744  -2.393  -0.090  0.00  0.00    +0.020 C 
ENDBRANCH  16  19
ENDBRANCH  15  16
ENDBRANCH  14  15
ENDBRANCH  13  14
ENDBRANCH   1  13
TORSDOF 8
