REMARK  Name = molecules/VDHAWDNDOKGFTD-MRXNPFEDSA-N.pdb
REMARK                            x       y       z     vdW  Elec       q    Type
REMARK                         _______ _______ _______ _____ _____    ______ ____
ROOT
ATOM      1  N   LIG    1       -0.726  -0.212   0.445  0.00  0.00    -0.310 NA
ATOM      2  H   LIG    1       -1.081   0.657   0.843  0.00  0.00    +0.122 HD
ENDROOT
BRANCH   1   3
ATOM      3  C   LIG    1       -1.737  -1.089  -0.034  0.00  0.00    +0.081 C 
ATOM      4  C   LIG    1       -1.044  -2.093  -0.961  0.00  0.00    +0.029 C 
BRANCH   3   5
ATOM      5  C   LIG    1       -2.841  -0.399  -0.730  0.00  0.00    -0.023 A 
ATOM      6  C   LIG    1       -3.834   0.317  -0.097  0.00  0.00    -0.013 A 
ATOM      7  C   LIG    1       -3.790   0.383   1.277  0.00  0.00    +0.009 A 
ATOM      8  C   LIG    1       -4.773   1.087   1.936  0.00  0.00    +0.001 A 
ATOM      9  C   LIG    1       -5.800   1.726   1.258  0.00  0.00    +0.001 A 
ATOM     10  C   LIG    1       -5.856   1.668  -0.120  0.00  0.00    +0.008 A 
ATOM     11  C   LIG    1       -4.867   0.963  -0.747  0.00  0.00    -0.018 A 
ATOM     12  C   LIG    1       -4.922   0.891  -2.152  0.00  0.00    +0.008 A 
ATOM     13  C   LIG    1       -3.956   0.194  -2.791  0.00  0.00    +0.001 A 
ATOM     14  C   LIG    1       -2.920  -0.453  -2.134  0.00  0.00    +0.006 A 
ENDBRANCH   3   5
ENDBRANCH   1   3
BRANCH   1  15
ATOM     15  C   LIG    1        0.150  -0.901   1.323  0.00  0.00    +0.082 C 
BRANCH  15  16
ATOM     16  C   LIG    1        1.516  -0.164   1.287  0.00  0.00    +0.020 C 
BRANCH  16  17
ATOM     17  C   LIG    1        1.981  -0.281  -0.175  0.00  0.00    +0.036 C 
BRANCH  17  18
ATOM     18  C   LIG    1        3.330   0.283  -0.291  0.00  0.00    -0.047 A 
ATOM     19  C   LIG    1        4.410  -0.573  -0.081  0.00  0.00    +0.016 A 
ATOM     20  C   LIG    1        5.713  -0.157  -0.190  0.00  0.00    +0.055 A 
ATOM     21  C   LIG    1        5.936   1.163  -0.521  0.00  0.00    +0.012 A 
ATOM     22  C   LIG    1        4.903   2.064  -0.740  0.00  0.00    +0.001 A 
ATOM     23  C   LIG    1        3.610   1.598  -0.620  0.00  0.00    +0.003 A 
BRANCH  20  24
ATOM     24  C   LIG    1        6.778  -1.148   0.069  0.00  0.00    +0.417 C 
ATOM     25  F   LIG    1        6.656  -1.567   1.385  0.00  0.00    -0.166 F 
ATOM     26  F   LIG    1        8.001  -0.662  -0.262  0.00  0.00    -0.166 F 
ATOM     27  F   LIG    1        6.553  -2.306  -0.706  0.00  0.00    -0.166 F 
ENDBRANCH  20  24
ENDBRANCH  17  18
ENDBRANCH  16  17
ENDBRANCH  15  16
ENDBRANCH   1  15
TORSDOF 7
