REMARK  Name = molecules/VDOSWXIDETXFET-UHFFFAOYSA-N.pdb
REMARK                            x       y       z     vdW  Elec       q    Type
REMARK                         _______ _______ _______ _____ _____    ______ ____
ROOT
ATOM      1  N   LIG    1       -0.479   0.171  -0.315  0.00  0.00    -0.262 N 
ATOM      2  C   LIG    1       -0.280   1.483  -0.091  0.00  0.00    +0.149 A 
ATOM      3  N   LIG    1        0.947   1.993   0.193  0.00  0.00    -0.230 NA
ATOM      4  C   LIG    1        2.046   1.220   0.270  0.00  0.00    +0.078 A 
ATOM      5  C   LIG    1        3.275   1.778   0.561  0.00  0.00    +0.030 A 
ATOM      6  C   LIG    1        4.353   0.912   0.620  0.00  0.00    +0.025 A 
ATOM      7  C   LIG    1        4.238  -0.447   0.404  0.00  0.00    +0.025 A 
ATOM      8  C   LIG    1        2.985  -0.941   0.118  0.00  0.00    +0.038 A 
ATOM      9  C   LIG    1        1.868  -0.130   0.044  0.00  0.00    +0.067 A 
ATOM     10  C   LIG    1        0.606  -0.625  -0.244  0.00  0.00    +0.266 A 
ATOM     11  O   LIG    1        0.444  -1.859  -0.450  0.00  0.00    -0.267 OA
ENDROOT
BRANCH   1  18
ATOM     12  C   LIG    1       -2.052  -0.598   1.809  0.00  0.00    +0.046 C 
ATOM     13  C   LIG    1       -2.594  -0.709   0.432  0.00  0.00    -0.026 A 
ATOM     14  C   LIG    1       -3.865  -1.186   0.172  0.00  0.00    +0.005 A 
ATOM     15  C   LIG    1       -4.327  -1.272  -1.126  0.00  0.00    +0.000 A 
ATOM     16  C   LIG    1       -3.531  -0.883  -2.205  0.00  0.00    +0.002 A 
ATOM     17  C   LIG    1       -2.274  -0.415  -1.894  0.00  0.00    +0.026 A 
ATOM     18  C   LIG    1       -1.784  -0.317  -0.608  0.00  0.00    +0.054 A 
ENDBRANCH   1  18
BRANCH   7  19
ATOM     19  N   LIG    1        5.335  -1.344   0.462  0.00  0.00    -0.358 N 
ATOM     20  H   LIG    1        5.990  -1.375   1.275  0.00  0.00    +0.142 HD
ATOM     21  H   LIG    1        5.539  -2.027  -0.326  0.00  0.00    +0.142 HD
ENDBRANCH   7  19
BRANCH   2  22
ATOM     22  C   LIG    1       -1.481   2.378  -0.167  0.00  0.00    +0.287 C 
ATOM     23  F   LIG    1       -1.669   2.856  -1.434  0.00  0.00    -0.241 F 
ENDBRANCH   2  22
TORSDOF 3
