REMARK  Name = molecules/VDPYMEBVIDZKMD-UHFFFAOYSA-N.pdb
REMARK                            x       y       z     vdW  Elec       q    Type
REMARK                         _______ _______ _______ _____ _____    ______ ____
ROOT
ATOM      1  C   LIG    1        0.887   1.209  -0.358  0.00  0.00    +0.200 C 
ENDROOT
BRANCH   1   3
ATOM      2  C   LIG    1       -0.765  -0.245  -1.504  0.00  0.00    +0.224 C 
ATOM      3  N   LIG    1        0.312  -0.115  -0.602  0.00  0.00    -0.306 N 
ATOM      4  H   LIG    1        0.690  -0.962  -0.117  0.00  0.00    +0.149 HD
ATOM      5  O   LIG    1       -1.224   0.759  -2.090  0.00  0.00    -0.275 OA
BRANCH   2   6
ATOM      6  C   LIG    1       -1.354  -1.573  -1.759  0.00  0.00    +0.173 C 
BRANCH   6   7
ATOM      7  S   LIG    1       -2.717  -1.926  -0.630  0.00  0.00    -0.074 S 
BRANCH   7   8
ATOM      8  C   LIG    1       -4.056  -0.815  -0.966  0.00  0.00    +0.220 C 
ATOM      9  O   LIG    1       -3.964   0.038  -1.869  0.00  0.00    -0.280 OA
BRANCH   8  10
ATOM     10  C   LIG    1       -5.270  -0.904  -0.179  0.00  0.00    +0.028 A 
ATOM     11  C   LIG    1       -5.413  -1.841   0.841  0.00  0.00    +0.012 A 
ATOM     12  C   LIG    1       -6.548  -1.924   1.576  0.00  0.00    +0.001 A 
ATOM     13  C   LIG    1       -7.595  -1.072   1.325  0.00  0.00    +0.000 A 
ATOM     14  C   LIG    1       -7.461  -0.142   0.317  0.00  0.00    +0.001 A 
ATOM     15  C   LIG    1       -6.324  -0.029  -0.449  0.00  0.00    +0.012 A 
ENDBRANCH   8  10
ENDBRANCH   7   8
ENDBRANCH   6   7
ENDBRANCH   2   6
ENDBRANCH   1   3
BRANCH   1  16
ATOM     16  C   LIG    1        1.986   1.069   0.610  0.00  0.00    +0.231 C 
ATOM     17  O   LIG    1        2.279  -0.051   1.073  0.00  0.00    -0.274 OA
ATOM     18  N   LIG    1        2.708   2.217   1.011  0.00  0.00    -0.305 N 
ATOM     19  H   LIG    1        2.411   3.143   0.593  0.00  0.00    +0.149 HD
BRANCH  18  20
ATOM     20  C   LIG    1        3.800   2.197   1.935  0.00  0.00    +0.200 C 
BRANCH  20  21
ATOM     21  C   LIG    1        4.914   1.401   1.372  0.00  0.00    +0.231 C 
ATOM     22  O   LIG    1        5.948   1.255   2.126  0.00  0.00    -0.274 OA
ATOM     23  N   LIG    1        4.924   0.803   0.089  0.00  0.00    -0.304 N 
ATOM     24  H   LIG    1        4.138   0.907  -0.556  0.00  0.00    +0.149 HD
BRANCH  23  25
ATOM     25  C   LIG    1        6.092   0.041  -0.328  0.00  0.00    +0.224 C 
BRANCH  25  26
ATOM     26  C   LIG    1        5.921  -0.506  -1.695  0.00  0.00    +0.322 C 
ATOM     27  O   LIG    1        4.899  -0.333  -2.401  0.00  0.00    -0.249 OA
BRANCH  26  28
ATOM     28  O   LIG    1        6.960  -1.255  -2.222  0.00  0.00    -0.480 OA
ATOM     29  H   LIG    1        7.869  -0.901  -2.434  0.00  0.00    +0.295 HD
ENDBRANCH  26  28
ENDBRANCH  25  26
ENDBRANCH  23  25
ENDBRANCH  20  21
ENDBRANCH  18  20
ENDBRANCH   1  16
TORSDOF 11
