REMARK  Name = molecules/VDTNNGKXZGSZIP-UHFFFAOYSA-N.pdb
REMARK                            x       y       z     vdW  Elec       q    Type
REMARK                         _______ _______ _______ _____ _____    ______ ____
ROOT
ATOM      1  S   LIG    1       -1.060  -1.256  -1.325  0.00  0.00    +0.076 S 
ATOM      2  O   LIG    1       -0.396  -2.322  -0.499  0.00  0.00    -0.150 OA
ATOM      3  O   LIG    1       -1.116  -1.684  -2.763  0.00  0.00    -0.150 OA
ENDROOT
BRANCH   1   7
ATOM      4  N   LIG    1        1.644   1.528  -0.259  0.00  0.00    -0.298 N 
ATOM      5  C   LIG    1        0.909   0.320  -0.332  0.00  0.00    +0.319 C 
ATOM      6  O   LIG    1        1.249  -0.627   0.435  0.00  0.00    -0.251 OA
ATOM      7  N   LIG    1       -0.164   0.203  -1.240  0.00  0.00    -0.169 N 
ATOM      8  H   LIG    1       -0.410   0.995  -1.853  0.00  0.00    +0.178 HD
ATOM      9  H   LIG    1        1.346   2.318  -0.904  0.00  0.00    +0.150 HD
BRANCH   4  10
ATOM     10  C   LIG    1        2.748   1.673   0.653  0.00  0.00    +0.106 C 
BRANCH  10  11
ATOM     11  C   LIG    1        3.824   0.690   0.346  0.00  0.00    +0.018 C 
BRANCH  11  13
ATOM     12  C   LIG    1        6.012  -0.234   0.868  0.00  0.00    +0.004 C 
ATOM     13  C   LIG    1        5.010   0.819   1.294  0.00  0.00    -0.002 C 
ENDBRANCH  11  13
ENDBRANCH  10  11
ENDBRANCH   4  10
ENDBRANCH   1   7
BRANCH   1  14
ATOM     14  C   LIG    1       -2.720  -0.988  -0.784  0.00  0.00    +0.109 A 
ATOM     15  C   LIG    1       -3.096  -1.152   0.532  0.00  0.00    +0.030 A 
ATOM     16  C   LIG    1       -4.398  -0.923   0.928  0.00  0.00    +0.024 A 
ATOM     17  C   LIG    1       -5.388  -0.522   0.039  0.00  0.00    +0.025 A 
ATOM     18  C   LIG    1       -4.996  -0.363  -1.273  0.00  0.00    +0.024 A 
ATOM     19  C   LIG    1       -3.697  -0.590  -1.673  0.00  0.00    +0.030 A 
BRANCH  17  20
ATOM     20  N   LIG    1       -6.725  -0.286   0.457  0.00  0.00    -0.358 N 
ATOM     21  H   LIG    1       -7.039  -0.247   1.446  0.00  0.00    +0.142 HD
ATOM     22  H   LIG    1       -7.442  -0.142  -0.282  0.00  0.00    +0.142 HD
ENDBRANCH  17  20
ENDBRANCH   1  14
TORSDOF 6
