REMARK  Name = molecules/VEQOALNAAJBPNY-UHFFFAOYSA-N.pdb
REMARK                            x       y       z     vdW  Elec       q    Type
REMARK                         _______ _______ _______ _____ _____    ______ ____
ROOT
ATOM      1  C   LIG    1        1.326  -0.344   1.572  0.00  0.00    +0.171 C 
ATOM      2  N   LIG    1        1.278   0.038   0.166  0.00  0.00    -0.284 N 
ATOM      3  N   LIG    1        0.176   0.146  -0.542  0.00  0.00    -0.217 N 
ATOM      4  C   LIG    1        0.563   0.520  -1.797  0.00  0.00    +0.272 A 
ATOM      5  C   LIG    1        1.937   0.638  -1.836  0.00  0.00    +0.094 A 
ATOM      6  O   LIG    1       -0.224   0.722  -2.758  0.00  0.00    -0.266 OA
ATOM      7  C   LIG    1        2.360   0.321  -0.557  0.00  0.00    +0.038 A 
ATOM      8  C   LIG    1        3.796   0.312  -0.116  0.00  0.00    +0.065 C 
ENDROOT
BRANCH   3   9
ATOM      9  C   LIG    1       -1.182  -0.061  -0.175  0.00  0.00    +0.067 A 
ATOM     10  C   LIG    1       -1.695  -1.315   0.096  0.00  0.00    +0.028 A 
ATOM     11  C   LIG    1       -3.034  -1.482   0.454  0.00  0.00    +0.002 A 
ATOM     12  C   LIG    1       -3.875  -0.404   0.545  0.00  0.00    +0.000 A 
ATOM     13  C   LIG    1       -3.372   0.846   0.277  0.00  0.00    +0.002 A 
ATOM     14  C   LIG    1       -2.038   1.017  -0.080  0.00  0.00    +0.028 A 
ENDBRANCH   3   9
TORSDOF 1
