REMARK  Name = molecules/VERWOWGGCGHDQE-UHFFFAOYSA-N.pdb
REMARK                            x       y       z     vdW  Elec       q    Type
REMARK                         _______ _______ _______ _____ _____    ______ ____
ROOT
ATOM      1  C   LIG    1        0.390   0.751  -0.422  0.00  0.00    +0.221 A 
ATOM      2  N   LIG    1        1.653   0.730  -0.014  0.00  0.00    -0.198 NA
ATOM      3  C   LIG    1        2.749   0.985  -0.726  0.00  0.00    +0.147 A 
ATOM      4  C   LIG    1        2.466   1.312  -2.078  0.00  0.00    +0.099 A 
ATOM      5  C   LIG    1        1.176   1.353  -2.554  0.00  0.00    +0.137 A 
ATOM      6 CL   LIG    1        3.824   1.651  -3.117  0.00  0.00    -0.078 Cl
ATOM      7  N   LIG    1        0.162   1.075  -1.726  0.00  0.00    -0.221 NA
ENDROOT
BRANCH   1   8
ATOM      8  N   LIG    1       -0.705   0.248   0.381  0.00  0.00    -0.281 N 
ATOM      9  H   LIG    1       -0.455  -0.117   1.292  0.00  0.00    +0.155 HD
BRANCH   8  10
ATOM     10  C   LIG    1       -2.021   0.375  -0.159  0.00  0.00    +0.076 A 
ATOM     11  C   LIG    1       -2.850  -0.751  -0.209  0.00  0.00    +0.142 A 
ATOM     12  C   LIG    1       -4.177  -0.485  -0.637  0.00  0.00    +0.051 A 
ATOM     13  C   LIG    1       -4.665   0.728  -0.971  0.00  0.00    -0.038 A 
ATOM     14  C   LIG    1       -3.813   1.833  -0.906  0.00  0.00    -0.045 A 
ATOM     15  C   LIG    1       -4.288   3.184  -1.310  0.00  0.00    +0.044 C 
ATOM     16  C   LIG    1       -2.518   1.623  -0.506  0.00  0.00    +0.030 A 
BRANCH  13  17
ATOM     17  C   LIG    1       -6.089   1.030  -1.220  0.00  0.00    +0.022 C 
ATOM     18  C   LIG    1       -6.845   0.048  -0.203  0.00  0.00    +0.023 C 
ATOM     19  C   LIG    1       -8.320   0.205  -0.379  0.00  0.00    +0.081 C 
ATOM     20  N   LIG    1       -8.652   1.080  -1.483  0.00  0.00    -0.316 NA
ATOM     21  H   LIG    1       -8.396   2.043  -1.398  0.00  0.00    +0.122 HD
ATOM     22  C   LIG    1       -8.056   0.465  -2.653  0.00  0.00    +0.081 C 
ATOM     23  C   LIG    1       -6.562   0.452  -2.537  0.00  0.00    +0.023 C 
ENDBRANCH  13  17
BRANCH  11  24
ATOM     24  O   LIG    1       -2.495  -1.996   0.093  0.00  0.00    -0.488 OA
BRANCH  24  25
ATOM     25  C   LIG    1       -1.512  -2.776   0.542  0.00  0.00    +0.167 C 
ATOM     26  C   LIG    1       -1.904  -3.830   1.570  0.00  0.00    +0.051 C 
ATOM     27  C   LIG    1       -0.881  -3.518  -0.667  0.00  0.00    +0.051 C 
ENDBRANCH  24  25
ENDBRANCH  11  24
ENDBRANCH   8  10
ENDBRANCH   1   8
BRANCH   3  28
ATOM     28  N   LIG    1        4.088   0.871  -0.310  0.00  0.00    -0.297 N 
ATOM     29  H   LIG    1        4.803   0.881  -1.111  0.00  0.00    +0.154 HD
BRANCH  28  30
ATOM     30  C   LIG    1        4.510   0.744   1.020  0.00  0.00    +0.058 A 
ATOM     31  C   LIG    1        3.684   1.178   2.043  0.00  0.00    +0.025 A 
ATOM     32  C   LIG    1        4.071   1.254   3.379  0.00  0.00    +0.002 A 
ATOM     33  C   LIG    1        5.330   0.886   3.724  0.00  0.00    +0.002 A 
ATOM     34  C   LIG    1        6.199   0.440   2.718  0.00  0.00    +0.029 A 
ATOM     35  C   LIG    1        5.782   0.374   1.406  0.00  0.00    +0.110 A 
BRANCH  35  36
ATOM     36  S   LIG    1        6.835  -0.413   0.260  0.00  0.00    +0.001 S 
ATOM     37  O   LIG    1        6.180  -1.773  -0.046  0.00  0.00    -0.169 OA
ATOM     38  O   LIG    1        6.944   0.317  -1.015  0.00  0.00    -0.169 OA
BRANCH  36  39
ATOM     39  C   LIG    1        8.478  -0.702   0.865  0.00  0.00    +0.130 C 
ATOM     40  C   LIG    1        8.431  -1.666   2.013  0.00  0.00    +0.032 C 
ATOM     41  C   LIG    1        9.254   0.518   1.193  0.00  0.00    +0.032 C 
ENDBRANCH  36  39
ENDBRANCH  35  36
ENDBRANCH  28  30
ENDBRANCH   3  28
TORSDOF 9
