REMARK  Name = molecules/VEVSKUJZSMGTMM-HHHXNRCGSA-N.pdb
REMARK                            x       y       z     vdW  Elec       q    Type
REMARK                         _______ _______ _______ _____ _____    ______ ____
ROOT
ATOM      1  C   LIG    1       -1.643   1.060   0.213  0.00  0.00    +0.176 C 
ENDROOT
BRANCH   1   2
ATOM      2  O   LIG    1       -2.722   0.296   0.275  0.00  0.00    -0.366 OA
BRANCH   2   3
ATOM      3  C   LIG    1       -3.603   0.346  -0.793  0.00  0.00    +0.180 C 
BRANCH   3   4
ATOM      4  C   LIG    1       -4.289  -1.024  -0.779  0.00  0.00    +0.004 A 
ATOM      5  C   LIG    1       -3.805  -2.103  -0.109  0.00  0.00    +0.008 A 
ATOM      6  C   LIG    1       -4.516  -3.270   0.015  0.00  0.00    +0.000 A 
ATOM      7  C   LIG    1       -5.752  -3.396  -0.545  0.00  0.00    +0.001 A 
ATOM      8  C   LIG    1       -6.274  -2.281  -1.255  0.00  0.00    +0.020 A 
ATOM      9  C   LIG    1       -5.535  -1.111  -1.364  0.00  0.00    +0.047 A 
ATOM     10 CL   LIG    1       -6.181   0.283  -2.236  0.00  0.00    -0.083 Cl
ENDBRANCH   3   4
BRANCH   3  11
ATOM     11  C   LIG    1       -4.719   1.206  -0.105  0.00  0.00    -0.014 A 
ATOM     12  C   LIG    1       -5.300   0.576   0.930  0.00  0.00    +0.006 A 
ATOM     13  C   LIG    1       -6.249   1.250   1.679  0.00  0.00    +0.000 A 
ATOM     14  C   LIG    1       -6.598   2.545   1.380  0.00  0.00    +0.000 A 
ATOM     15  C   LIG    1       -5.961   3.143   0.281  0.00  0.00    +0.000 A 
ATOM     16  C   LIG    1       -5.011   2.476  -0.465  0.00  0.00    +0.006 A 
ENDBRANCH   3  11
ENDBRANCH   2   3
ENDBRANCH   1   2
BRANCH   1  17
ATOM     17  C   LIG    1       -0.423   0.150   0.205  0.00  0.00    +0.112 C 
BRANCH  17  18
ATOM     18  N   LIG    1        0.758   0.902   0.344  0.00  0.00    -0.298 NA
ATOM     19  C   LIG    1        1.584   0.298   1.325  0.00  0.00    +0.100 C 
ATOM     20  C   LIG    1        3.063   0.539   0.945  0.00  0.00    +0.100 C 
ATOM     21  N   LIG    1        3.178   0.081  -0.402  0.00  0.00    -0.296 NA
ATOM     22  C   LIG    1        2.311   0.607  -1.387  0.00  0.00    +0.100 C 
ATOM     23  C   LIG    1        1.271   1.550  -0.740  0.00  0.00    +0.100 C 
BRANCH  21  24
ATOM     24  C   LIG    1        4.389  -0.293  -0.923  0.00  0.00    +0.120 C 
BRANCH  24  25
ATOM     25  C   LIG    1        5.480  -0.877  -0.086  0.00  0.00    -0.030 A 
ATOM     26  C   LIG    1        5.564  -2.146   0.381  0.00  0.00    +0.005 A 
ATOM     27  C   LIG    1        6.775  -2.618   0.909  0.00  0.00    +0.000 A 
ATOM     28  C   LIG    1        7.888  -1.844   0.976  0.00  0.00    +0.000 A 
ATOM     29  C   LIG    1        7.795  -0.516   0.497  0.00  0.00    +0.003 A 
ATOM     30  C   LIG    1        6.608  -0.082  -0.013  0.00  0.00    -0.046 A 
ATOM     31  C   LIG    1        6.395   1.388  -0.280  0.00  0.00    +0.044 C 
ENDBRANCH  24  25
ENDBRANCH  21  24
ENDBRANCH  17  18
ENDBRANCH   1  17
TORSDOF 8
