REMARK  Name = molecules/VEZXCJBBBCKRPI-UHFFFAOYSA-N.pdb
REMARK                            x       y       z     vdW  Elec       q    Type
REMARK                         _______ _______ _______ _____ _____    ______ ____
ROOT
ATOM      1  O   LIG    1        2.294  -0.131   0.216  0.00  0.00    -0.251 OA
ATOM      2  C   LIG    1        1.060  -0.043   0.333  0.00  0.00    +0.310 C 
ATOM      3  O   LIG    1        0.222   0.818   1.014  0.00  0.00    -0.464 OA
ATOM      4  C   LIG    1       -0.680   0.669  -0.066  0.00  0.00    +0.243 C 
ATOM      5  C   LIG    1       -0.145  -0.750  -0.147  0.00  0.00    +0.161 C 
ENDROOT
TORSDOF 0
