REMARK  Name = molecules/VFEDRRNHLBGPNN-UHFFFAOYSA-N.pdb
REMARK                            x       y       z     vdW  Elec       q    Type
REMARK                         _______ _______ _______ _____ _____    ______ ____
ROOT
ATOM      1  C   LIG    1       -0.126   0.483  -0.727  0.00  0.00    +0.146 C 
ENDROOT
BRANCH   1   2
ATOM      2  C   LIG    1       -1.550   0.194  -0.531  0.00  0.00    +0.027 A 
ATOM      3  C   LIG    1       -2.070  -0.759   0.295  0.00  0.00    +0.121 A 
ATOM      4  N   LIG    1       -3.409  -0.909   0.370  0.00  0.00    -0.240 NA
ATOM      5  C   LIG    1       -4.294  -0.182  -0.318  0.00  0.00    +0.128 A 
ATOM      6  C   LIG    1       -5.770  -0.398  -0.191  0.00  0.00    +0.088 C 
ATOM      7  N   LIG    1       -3.786   0.755  -1.131  0.00  0.00    -0.218 NA
ATOM      8  C   LIG    1       -2.486   0.968  -1.264  0.00  0.00    +0.124 A 
BRANCH   8   9
ATOM      9  N   LIG    1       -1.947   1.970  -2.133  0.00  0.00    -0.343 N 
ATOM     10  H   LIG    1       -1.214   2.605  -1.765  0.00  0.00    +0.144 HD
ATOM     11  H   LIG    1       -2.265   2.079  -3.113  0.00  0.00    +0.144 HD
ENDBRANCH   8   9
ENDBRANCH   1   2
BRANCH   1  12
ATOM     12  N   LIG    1        0.737  -0.336   0.042  0.00  0.00    -0.294 N 
ATOM     13  H   LIG    1        0.389  -1.060   0.673  0.00  0.00    +0.151 HD
ATOM     14  C   LIG    1        2.165  -0.112  -0.095  0.00  0.00    +0.324 C 
ATOM     15  N   LIG    1        3.059  -0.915   0.661  0.00  0.00    -0.140 N 
ATOM     16  O   LIG    1        2.539   0.782  -0.875  0.00  0.00    -0.251 OA
BRANCH  15  17
ATOM     17  N   LIG    1        2.581  -1.904   1.522  0.00  0.00    +0.053 NA
ATOM     18  O   LIG    1        1.893  -1.655   2.521  0.00  0.00    -0.126 OA
ENDBRANCH  15  17
BRANCH  15  19
ATOM     19  C   LIG    1        4.484  -0.729   0.558  0.00  0.00    +0.155 C 
BRANCH  19  20
ATOM     20  C   LIG    1        4.979   0.294   1.587  0.00  0.00    +0.130 C 
ATOM     21 CL   LIG    1        6.732   0.499   1.433  0.00  0.00    -0.124 Cl
ENDBRANCH  19  20
ENDBRANCH  15  19
ENDBRANCH   1  12
TORSDOF 6
