REMARK  Name = molecules/VGQLNJWOULYVFV-SPJNRGJMSA-N.pdb
REMARK                            x       y       z     vdW  Elec       q    Type
REMARK                         _______ _______ _______ _____ _____    ______ ____
ROOT
ATOM      1  C   LIG    1        1.134   0.447  -0.842  0.00  0.00    +0.119 C 
ATOM      2  C   LIG    1        1.155   1.824  -0.256  0.00  0.00    +0.026 C 
ATOM      3  C   LIG    1        0.173   1.975   0.881  0.00  0.00    -0.027 C 
ATOM      4  C   LIG    1       -1.065   1.940   0.394  0.00  0.00    -0.027 C 
ATOM      5  C   LIG    1       -0.927   1.665  -1.060  0.00  0.00    +0.026 C 
ATOM      6  C   LIG    1        0.316   2.526  -1.346  0.00  0.00    +0.016 C 
ATOM      7  C   LIG    1       -0.337   0.276  -1.165  0.00  0.00    +0.119 C 
ENDROOT
BRANCH   1   8
ATOM      8  C   LIG    1        1.703  -0.592   0.004  0.00  0.00    +0.311 C 
ATOM      9  O   LIG    1        2.179  -0.300   1.140  0.00  0.00    -0.251 OA
BRANCH   8  10
ATOM     10  O   LIG    1        1.759  -1.924  -0.373  0.00  0.00    -0.468 OA
ATOM     11  C   LIG    1        2.313  -2.932   0.452  0.00  0.00    +0.280 C 
ENDBRANCH   8  10
ENDBRANCH   1   8
BRANCH   7  12
ATOM     12  C   LIG    1       -1.008  -0.585  -0.133  0.00  0.00    +0.311 C 
ATOM     13  O   LIG    1       -0.379  -1.041   0.853  0.00  0.00    -0.251 OA
BRANCH  12  14
ATOM     14  O   LIG    1       -2.351  -0.909  -0.231  0.00  0.00    -0.468 OA
ATOM     15  C   LIG    1       -3.053  -1.700   0.679  0.00  0.00    +0.280 C 
ENDBRANCH  12  14
ENDBRANCH   7  12
TORSDOF 4
