REMARK  Name = molecules/VHEOUJNDDFHPGJ-UHFFFAOYSA-N.pdb
REMARK                            x       y       z     vdW  Elec       q    Type
REMARK                         _______ _______ _______ _____ _____    ______ ____
ROOT
ATOM      1  C   LIG    1       -0.223   0.546  -0.209  0.00  0.00    +0.225 C 
ATOM      2  N   LIG    1       -1.565   0.911  -0.023  0.00  0.00    -0.238 N 
ATOM      3  C   LIG    1       -2.551  -0.017   0.490  0.00  0.00    +0.056 A 
ATOM      4  C   LIG    1       -3.792   0.269   0.963  0.00  0.00    +0.034 A 
ATOM      5  C   LIG    1       -4.706  -0.668   1.298  0.00  0.00    +0.017 A 
ATOM      6  C   LIG    1       -4.437  -2.007   1.182  0.00  0.00    +0.013 A 
ATOM      7  C   LIG    1       -3.203  -2.376   0.715  0.00  0.00    +0.057 A 
ATOM      8  S   LIG    1       -4.248   1.965   1.201  0.00  0.00    -0.089 S 
ATOM      9  C   LIG    1       -3.050   2.916   0.327  0.00  0.00    +0.020 C 
ATOM     10  C   LIG    1       -3.358   4.244   0.150  0.00  0.00    +0.062 C 
ATOM     11  C   LIG    1       -2.477   5.087  -0.476  0.00  0.00    -0.017 C 
ATOM     12  C   LIG    1       -1.312   4.561  -0.906  0.00  0.00    -0.002 C 
ATOM     13  C   LIG    1       -1.010   3.207  -0.719  0.00  0.00    +0.024 C 
ATOM     14  C   LIG    1       -2.280  -1.391   0.375  0.00  0.00    +0.037 A 
ATOM     15  C   LIG    1       -1.895   2.329  -0.079  0.00  0.00    +0.052 C 
ATOM     16  O   LIG    1        0.568   1.630  -0.279  0.00  0.00    -0.275 OA
ENDROOT
BRANCH   7  17
ATOM     17  C   LIG    1       -2.816  -3.810   0.526  0.00  0.00    +0.417 C 
ATOM     18  F   LIG    1       -1.607  -4.075   1.109  0.00  0.00    -0.166 F 
ATOM     19  F   LIG    1       -3.837  -4.629   0.973  0.00  0.00    -0.166 F 
ATOM     20  F   LIG    1       -2.686  -4.054  -0.848  0.00  0.00    -0.166 F 
ENDBRANCH   7  17
BRANCH   1  21
ATOM     21  C   LIG    1        0.610  -0.617  -0.340  0.00  0.00    +0.112 C 
BRANCH  21  22
ATOM     22  C   LIG    1        2.031  -0.150  -0.813  0.00  0.00    +0.093 C 
BRANCH  22  23
ATOM     23  N   LIG    1        3.010  -1.177  -0.719  0.00  0.00    -0.302 NA
BRANCH  23  25
ATOM     24  C   LIG    1        3.668  -0.197   1.443  0.00  0.00    +0.020 C 
ATOM     25  C   LIG    1        3.328  -1.439   0.692  0.00  0.00    +0.081 C 
ENDBRANCH  23  25
BRANCH  23  26
ATOM     26  C   LIG    1        4.245  -0.743  -1.398  0.00  0.00    +0.081 C 
ATOM     27  C   LIG    1        5.205  -1.898  -1.378  0.00  0.00    +0.020 C 
ENDBRANCH  23  26
ENDBRANCH  22  23
ENDBRANCH  21  22
ENDBRANCH   1  21
TORSDOF 6
