REMARK  Name = molecules/VHGCDTVCOLNTBX-QGZVFWFLSA-N.pdb
REMARK                            x       y       z     vdW  Elec       q    Type
REMARK                         _______ _______ _______ _____ _____    ______ ____
ROOT
ATOM      1  C   LIG    1        0.683  -0.401  -0.209  0.00  0.00    +0.205 C 
ENDROOT
BRANCH   1   2
ATOM      2  C   LIG    1        1.076  -1.684   0.440  0.00  0.00    -0.007 A 
ATOM      3  C   LIG    1        0.167  -2.580   0.950  0.00  0.00    +0.007 A 
ATOM      4  C   LIG    1        0.559  -3.771   1.545  0.00  0.00    +0.000 A 
ATOM      5  C   LIG    1        1.896  -4.095   1.645  0.00  0.00    +0.000 A 
ATOM      6  C   LIG    1        2.816  -3.212   1.141  0.00  0.00    +0.000 A 
ATOM      7  C   LIG    1        2.402  -2.040   0.556  0.00  0.00    +0.007 A 
ENDBRANCH   1   2
BRANCH   1   8
ATOM      8  O   LIG    1       -0.234   0.338   0.333  0.00  0.00    -0.484 OA
BRANCH   8   9
ATOM      9  C   LIG    1       -1.115   1.083   0.873  0.00  0.00    +0.124 A 
ATOM     10  C   LIG    1       -0.774   2.291   1.501  0.00  0.00    +0.046 A 
ATOM     11  C   LIG    1       -1.717   3.102   2.086  0.00  0.00    +0.004 A 
ATOM     12  C   LIG    1       -3.048   2.747   2.073  0.00  0.00    +0.000 A 
ATOM     13  C   LIG    1       -3.414   1.569   1.465  0.00  0.00    +0.007 A 
ATOM     14  C   LIG    1       -2.464   0.759   0.880  0.00  0.00    -0.009 A 
ATOM     15  C   LIG    1       -2.935  -0.506   0.229  0.00  0.00    +0.047 C 
ENDBRANCH   8   9
ENDBRANCH   1   8
BRANCH   1  16
ATOM     16  C   LIG    1        0.585  -0.613  -1.739  0.00  0.00    +0.064 C 
BRANCH  16  17
ATOM     17  C   LIG    1        0.671   0.752  -2.401  0.00  0.00    +0.084 C 
BRANCH  17  18
ATOM     18  N   LIG    1        1.916   1.422  -2.090  0.00  0.00    -0.319 NA
ATOM     19  H   LIG    1        2.717   0.869  -2.477  0.00  0.00    +0.122 HD
ATOM     20  C   LIG    1        1.861   2.713  -2.788  0.00  0.00    +0.101 C 
ENDBRANCH  17  18
ENDBRANCH  16  17
ENDBRANCH   1  16
TORSDOF 6
