REMARK  Name = molecules/VHOGYURTWQBHIL-UHFFFAOYSA-N.pdb
REMARK                            x       y       z     vdW  Elec       q    Type
REMARK                         _______ _______ _______ _____ _____    ______ ____
ROOT
ATOM      1  C   LIG    1        1.542   0.499   0.784  0.00  0.00    +0.253 C 
ATOM      2  O   LIG    1        1.236   0.168   1.930  0.00  0.00    -0.270 OA
ATOM      3  N   LIG    1        0.604   0.511  -0.300  0.00  0.00    -0.281 N 
ATOM      4  H   LIG    1        0.997   0.838  -1.242  0.00  0.00    +0.155 HD
ENDROOT
BRANCH   1   7
ATOM      5  C   LIG    1        3.901  -1.258  -0.430  0.00  0.00    +0.090 C 
ATOM      6  C   LIG    1        3.938   0.178  -0.019  0.00  0.00    +0.146 A 
ATOM      7  C   LIG    1        2.914   0.895   0.520  0.00  0.00    +0.098 A 
ATOM      8  C   LIG    1        3.418   2.184   0.747  0.00  0.00    +0.170 A 
ATOM      9  N   LIG    1        4.691   2.183   0.343  0.00  0.00    -0.086 NA
ATOM     10  O   LIG    1        4.994   0.994  -0.109  0.00  0.00    -0.359 OA
ENDBRANCH   1   7
BRANCH   3  11
ATOM     11  C   LIG    1       -0.753   0.147  -0.194  0.00  0.00    +0.034 A 
ATOM     12  C   LIG    1       -1.338  -0.538   0.837  0.00  0.00    +0.024 A 
ATOM     13  C   LIG    1       -2.704  -0.831   0.822  0.00  0.00    +0.014 A 
ATOM     14  C   LIG    1       -3.540  -0.458  -0.209  0.00  0.00    +0.055 A 
ATOM     15  C   LIG    1       -2.958   0.232  -1.249  0.00  0.00    +0.014 A 
ATOM     16  C   LIG    1       -1.608   0.526  -1.247  0.00  0.00    +0.024 A 
BRANCH  14  17
ATOM     17  C   LIG    1       -4.982  -0.840  -0.157  0.00  0.00    +0.417 C 
ATOM     18  F   LIG    1       -5.095  -1.974   0.596  0.00  0.00    -0.166 F 
ATOM     19  F   LIG    1       -5.715   0.186   0.418  0.00  0.00    -0.166 F 
ATOM     20  F   LIG    1       -5.494  -1.032  -1.446  0.00  0.00    -0.166 F 
ENDBRANCH  14  17
ENDBRANCH   3  11
TORSDOF 3
