REMARK  Name = molecules/VHRSUDSXCMQTMA-PJHHCJLFSA-N.pdb
REMARK                            x       y       z     vdW  Elec       q    Type
REMARK                         _______ _______ _______ _____ _____    ______ ____
ROOT
ATOM      1  C   LIG    1        1.755   0.250  -1.714  0.00  0.00    +0.015 C 
ATOM      2  C   LIG    1        1.780  -0.186  -0.292  0.00  0.00    +0.009 C 
ATOM      3  C   LIG    1        0.860   0.589   0.623  0.00  0.00    +0.002 C 
ATOM      4  C   LIG    1        1.576   1.826   0.948  0.00  0.00    +0.008 C 
ATOM      5  C   LIG    1        2.964   1.253   1.285  0.00  0.00    +0.043 C 
ATOM      6  C   LIG    1       -0.462   0.696  -0.074  0.00  0.00    -0.000 C 
ATOM      7  C   LIG    1       -1.255   1.750   0.587  0.00  0.00    +0.012 C 
ATOM      8  C   LIG    1       -2.735   1.654   0.541  0.00  0.00    +0.013 C 
ATOM      9  C   LIG    1       -3.337   2.094   1.854  0.00  0.00    +0.012 C 
ATOM     10  C   LIG    1       -3.222   0.263   0.259  0.00  0.00    -0.053 C 
ATOM     11  C   LIG    1       -4.358  -0.073   0.819  0.00  0.00    +0.051 C 
ATOM     12  C   LIG    1       -4.931  -1.398   0.642  0.00  0.00    +0.179 C 
ATOM     13  O   LIG    1       -6.011  -1.743   1.165  0.00  0.00    -0.288 OA
ATOM     14  C   LIG    1       -4.170  -2.312  -0.185  0.00  0.00    +0.047 C 
ATOM     15  C   LIG    1       -3.036  -1.954  -0.737  0.00  0.00    -0.012 C 
ATOM     16  C   LIG    1       -2.424  -0.640  -0.593  0.00  0.00    +0.013 C 
ATOM     17  C   LIG    1       -2.336   0.087  -1.942  0.00  0.00    +0.020 C 
ATOM     18  C   LIG    1       -1.050  -0.713   0.049  0.00  0.00    +0.035 C 
ATOM     19  C   LIG    1       -0.171  -1.777  -0.436  0.00  0.00    +0.120 C 
ATOM     20  C   LIG    1        3.110   0.054   0.341  0.00  0.00    +0.131 C 
ATOM     21  C   LIG    1        1.297  -1.603  -0.181  0.00  0.00    +0.041 C 
ENDROOT
BRANCH  19  22
ATOM     22  O   LIG    1       -0.300  -2.095  -1.800  0.00  0.00    -0.391 OA
ATOM     23  H   LIG    1       -0.190  -3.059  -1.969  0.00  0.00    +0.210 HD
ENDBRANCH  19  22
BRANCH  20  24
ATOM     24  O   LIG    1        3.507  -1.077   1.027  0.00  0.00    -0.380 OA
ATOM     25  H   LIG    1        3.651  -0.941   1.988  0.00  0.00    +0.211 HD
ENDBRANCH  20  24
BRANCH  20  26
ATOM     26  C   LIG    1        4.177   0.432  -0.614  0.00  0.00    +0.190 C 
ATOM     27  O   LIG    1        4.078   1.405  -1.331  0.00  0.00    -0.292 OA
BRANCH  26  28
ATOM     28  C   LIG    1        5.408  -0.382  -0.718  0.00  0.00    +0.233 C 
BRANCH  28  29
ATOM     29  O   LIG    1        5.440  -1.464   0.126  0.00  0.00    -0.387 OA
ATOM     30  H   LIG    1        6.010  -1.325   0.919  0.00  0.00    +0.210 HD
ENDBRANCH  28  29
ENDBRANCH  26  28
ENDBRANCH  20  26
TORSDOF 5
