REMARK  Name = molecules/VHSBBVZJABQOSG-INIZCTEOSA-N.pdb
REMARK                            x       y       z     vdW  Elec       q    Type
REMARK                         _______ _______ _______ _____ _____    ______ ____
ROOT
ATOM      1  N   LIG    1       -1.126   1.508  -2.128  0.00  0.00    -0.313 NA
ATOM      2  H   LIG    1       -1.215   2.569  -2.091  0.00  0.00    +0.122 HD
ENDROOT
BRANCH   1   3
ATOM      3  C   LIG    1        0.172   1.197  -1.643  0.00  0.00    +0.085 C 
BRANCH   3   4
ATOM      4  C   LIG    1        0.551  -0.253  -1.790  0.00  0.00    +0.050 C 
BRANCH   4   8
ATOM      5  C   LIG    1        4.552  -0.663  -0.218  0.00  0.00    +0.161 A 
ATOM      6  C   LIG    1        3.454  -0.819   0.595  0.00  0.00    +0.162 A 
ATOM      7  C   LIG    1        2.156  -0.688   0.098  0.00  0.00    +0.053 A 
ATOM      8  C   LIG    1        1.933  -0.398  -1.231  0.00  0.00    -0.042 A 
ATOM      9  C   LIG    1        3.042  -0.245  -2.037  0.00  0.00    +0.007 A 
ATOM     10  C   LIG    1        4.338  -0.373  -1.548  0.00  0.00    +0.049 A 
BRANCH   5  12
ATOM     11  C   LIG    1        6.990  -0.643  -0.523  0.00  0.00    +0.277 C 
ATOM     12  O   LIG    1        5.841  -0.793   0.275  0.00  0.00    -0.491 OA
ENDBRANCH   5  12
BRANCH   6  13
ATOM     13  O   LIG    1        3.673  -1.109   1.927  0.00  0.00    -0.491 OA
ATOM     14  C   LIG    1        2.646  -1.296   2.875  0.00  0.00    +0.277 C 
ENDBRANCH   6  13
ENDBRANCH   4   8
ENDBRANCH   3   4
ENDBRANCH   1   3
BRANCH   1  15
ATOM     15  C   LIG    1       -2.240   0.982  -1.433  0.00  0.00    +0.117 C 
BRANCH  15  16
ATOM     16  C   LIG    1       -2.476   1.536  -0.052  0.00  0.00    +0.158 C 
BRANCH  16  17
ATOM     17  C   LIG    1       -3.634   0.791   0.561  0.00  0.00    -0.018 A 
ATOM     18  C   LIG    1       -3.512  -0.493   0.986  0.00  0.00    +0.010 A 
ATOM     19  C   LIG    1       -4.566  -1.159   1.538  0.00  0.00    +0.046 A 
ATOM     20  C   LIG    1       -5.787  -0.522   1.671  0.00  0.00    +0.117 A 
ATOM     21  C   LIG    1       -5.906   0.801   1.231  0.00  0.00    +0.046 A 
ATOM     22  C   LIG    1       -4.832   1.452   0.679  0.00  0.00    +0.010 A 
BRANCH  20  23
ATOM     23  O   LIG    1       -6.857  -1.201   2.233  0.00  0.00    -0.507 OA
ATOM     24  H   LIG    1       -7.475  -1.734   1.614  0.00  0.00    +0.292 HD
ENDBRANCH  20  23
ENDBRANCH  16  17
BRANCH  16  25
ATOM     25  O   LIG    1       -1.368   1.288   0.772  0.00  0.00    -0.386 OA
ATOM     26  H   LIG    1       -1.655   0.952   1.659  0.00  0.00    +0.210 HD
ENDBRANCH  16  25
ENDBRANCH  15  16
ENDBRANCH   1  15
TORSDOF 10
