REMARK  Name = molecules/VHYCDWMUTMEGQY-KRWDZBQOSA-N.pdb
REMARK                            x       y       z     vdW  Elec       q    Type
REMARK                         _______ _______ _______ _____ _____    ______ ____
ROOT
ATOM      1  C   LIG    1        0.771   0.338  -0.721  0.00  0.00    +0.121 A 
ATOM      2  C   LIG    1        0.333  -0.634   0.142  0.00  0.00    +0.046 A 
ATOM      3  C   LIG    1       -0.975  -1.149   0.094  0.00  0.00    +0.009 A 
ATOM      4  C   LIG    1       -1.880  -0.693  -0.833  0.00  0.00    -0.022 A 
ATOM      5  C   LIG    1       -1.453   0.282  -1.703  0.00  0.00    +0.009 A 
ATOM      6  C   LIG    1       -0.178   0.791  -1.664  0.00  0.00    +0.046 A 
ENDROOT
BRANCH   1   7
ATOM      7  O   LIG    1        2.023   0.875  -0.729  0.00  0.00    -0.489 OA
BRANCH   7   8
ATOM      8  C   LIG    1        3.102   0.558   0.073  0.00  0.00    +0.261 C 
BRANCH   8   9
ATOM      9  C   LIG    1        3.665  -0.821  -0.063  0.00  0.00    +0.166 C 
BRANCH   9  10
ATOM     10  O   LIG    1        4.090  -0.978  -1.407  0.00  0.00    -0.387 OA
ATOM     11  H   LIG    1        4.315  -0.071  -1.726  0.00  0.00    +0.210 HD
ENDBRANCH   9  10
BRANCH   9  12
ATOM     12  C   LIG    1        4.913  -0.850   0.840  0.00  0.00    +0.115 C 
BRANCH  12  13
ATOM     13  N   LIG    1        5.758   0.231   0.437  0.00  0.00    -0.311 NA
ATOM     14  H   LIG    1        5.955   0.288  -0.579  0.00  0.00    +0.122 HD
BRANCH  13  15
ATOM     15  C   LIG    1        6.971   0.317   1.234  0.00  0.00    +0.048 C 
ATOM     16  C   LIG    1        7.753  -0.957   1.015  0.00  0.00    +0.023 C 
ATOM     17  C   LIG    1        7.799   1.463   0.676  0.00  0.00    +0.023 C 
ENDBRANCH  13  15
ENDBRANCH  12  13
ENDBRANCH   9  12
ENDBRANCH   8   9
ENDBRANCH   7   8
ENDBRANCH   1   7
BRANCH   4  18
ATOM     18  C   LIG    1       -3.285  -1.248  -0.887  0.00  0.00    +0.195 C 
BRANCH  18  19
ATOM     19  O   LIG    1       -3.936  -0.559  -1.867  0.00  0.00    -0.373 OA
BRANCH  19  20
ATOM     20  C   LIG    1       -5.218  -0.961  -2.076  0.00  0.00    +0.188 C 
BRANCH  20  21
ATOM     21  C   LIG    1       -6.042  -0.796  -0.835  0.00  0.00    +0.188 C 
BRANCH  21  22
ATOM     22  O   LIG    1       -6.023   0.551  -0.483  0.00  0.00    -0.375 OA
BRANCH  22  23
ATOM     23  C   LIG    1       -6.795   0.691   0.678  0.00  0.00    +0.112 C 
ATOM     24  C   LIG    1       -5.886   1.269   1.769  0.00  0.00    +0.037 C 
ATOM     25  C   LIG    1       -7.936   1.651   0.445  0.00  0.00    +0.037 C 
ENDBRANCH  22  23
ENDBRANCH  21  22
ENDBRANCH  20  21
ENDBRANCH  19  20
ENDBRANCH  18  19
ENDBRANCH   4  18
TORSDOF 13
