REMARK  Name = molecules/VIKNJXKGJWUCNN-XGXHKTLJSA-N.pdb
REMARK                            x       y       z     vdW  Elec       q    Type
REMARK                         _______ _______ _______ _____ _____    ______ ____
ROOT
ATOM      1  C   LIG    1        3.084  -1.162  -0.231  0.00  0.00    +0.016 C 
ATOM      2  C   LIG    1        2.208  -0.234   0.512  0.00  0.00    +0.019 C 
ATOM      3  C   LIG    1        2.660   1.179   0.493  0.00  0.00    -0.063 C 
ATOM      4  C   LIG    1        1.603   2.221   0.564  0.00  0.00    +0.031 C 
ATOM      5  C   LIG    1        0.409   1.806   1.362  0.00  0.00    +0.008 C 
ATOM      6  C   LIG    1       -0.136   0.454   1.028  0.00  0.00    -0.003 C 
ATOM      7  C   LIG    1       -1.421   0.564   0.335  0.00  0.00    +0.002 C 
ATOM      8  C   LIG    1       -2.525   1.299   0.960  0.00  0.00    +0.008 C 
ATOM      9  C   LIG    1       -3.725   0.809   0.149  0.00  0.00    +0.049 C 
ATOM     10  C   LIG    1       -3.256  -0.434  -0.585  0.00  0.00    +0.132 C 
ATOM     11  C   LIG    1       -2.029  -0.841   0.246  0.00  0.00    +0.011 C 
ATOM     12  C   LIG    1       -2.548  -1.324   1.562  0.00  0.00    +0.015 C 
ATOM     13  C   LIG    1       -1.147  -1.800  -0.449  0.00  0.00    +0.011 C 
ATOM     14  C   LIG    1        0.298  -1.567  -0.406  0.00  0.00    +0.005 C 
ATOM     15  C   LIG    1        3.932   1.527   0.418  0.00  0.00    +0.045 C 
ATOM     16  C   LIG    1        4.908   0.448   0.351  0.00  0.00    +0.156 C 
ATOM     17  O   LIG    1        6.058   0.612   0.832  0.00  0.00    -0.293 OA
ATOM     18  C   LIG    1        0.778  -0.225  -0.006  0.00  0.00    -0.000 C 
ATOM     19  C   LIG    1        4.526  -0.813  -0.278  0.00  0.00    +0.079 C 
ENDROOT
BRANCH  10  20
ATOM     20  O   LIG    1       -4.197  -1.422  -0.638  0.00  0.00    -0.376 OA
ATOM     21  H   LIG    1       -4.653  -1.419  -1.516  0.00  0.00    +0.211 HD
ENDBRANCH  10  20
BRANCH  10  22
ATOM     22  C   LIG    1       -2.737  -0.095  -1.921  0.00  0.00    -0.070 C 
ATOM     23  C   LIG    1       -2.298   0.191  -3.011  0.00  0.00    +0.007 C 
ENDBRANCH  10  22
TORSDOF 2
