REMARK  Name = molecules/VIQCGTZFEYDQMR-UHFFFAOYSA-N.pdb
REMARK                            x       y       z     vdW  Elec       q    Type
REMARK                         _______ _______ _______ _____ _____    ______ ____
ROOT
ATOM      1  C   LIG    1       -3.076  -0.544   0.696  0.00  0.00    +0.086 C 
ENDROOT
BRANCH   1   5
ATOM      2  N   LIG    1       -0.162  -0.107  -0.245  0.00  0.00    -0.297 NA
ATOM      3  C   LIG    1       -0.661   1.070   0.453  0.00  0.00    +0.100 C 
ATOM      4  C   LIG    1       -2.021   1.473  -0.051  0.00  0.00    +0.100 C 
ATOM      5  N   LIG    1       -2.725   0.256  -0.403  0.00  0.00    -0.300 NA
ATOM      6  C   LIG    1       -2.184  -0.373  -1.570  0.00  0.00    +0.100 C 
ATOM      7  C   LIG    1       -0.635  -0.279  -1.537  0.00  0.00    +0.100 C 
BRANCH   2   8
ATOM      8  C   LIG    1        1.181  -0.225   0.032  0.00  0.00    +0.125 C 
BRANCH   8   9
ATOM      9  C   LIG    1        1.841  -1.576  -0.138  0.00  0.00    +0.247 C 
BRANCH   9  10
ATOM     10  O   LIG    1        3.154  -1.442   0.359  0.00  0.00    -0.463 OA
BRANCH  10  11
ATOM     11  C   LIG    1        4.148  -2.354   0.391  0.00  0.00    +0.307 C 
ATOM     12  O   LIG    1        3.917  -3.496  -0.122  0.00  0.00    -0.251 OA
BRANCH  11  13
ATOM     13  C   LIG    1        5.489  -2.137   0.990  0.00  0.00    +0.120 C 
BRANCH  13  14
ATOM     14  C   LIG    1        5.545  -0.809   1.707  0.00  0.00    +0.011 C 
BRANCH  14  15
ATOM     15  C   LIG    1        5.437   0.327   0.742  0.00  0.00    +0.001 C 
BRANCH  15  16
ATOM     16  C   LIG    1        6.626   0.397  -0.211  0.00  0.00    +0.000 C 
BRANCH  16  17
ATOM     17  C   LIG    1        7.890   0.639   0.598  0.00  0.00    +0.000 C 
BRANCH  17  18
ATOM     18  C   LIG    1        9.123   0.744  -0.238  0.00  0.00    -0.000 C 
BRANCH  18  19
ATOM     19  C   LIG    1       10.292   1.009   0.718  0.00  0.00    -0.000 C 
BRANCH  19  21
ATOM     20  C   LIG    1       11.786  -0.188  -0.791  0.00  0.00    +0.004 C 
ATOM     21  C   LIG    1       11.569   1.125  -0.067  0.00  0.00    -0.003 C 
ENDBRANCH  19  21
ENDBRANCH  18  19
ENDBRANCH  17  18
ENDBRANCH  16  17
ENDBRANCH  15  16
ENDBRANCH  14  15
ENDBRANCH  13  14
ENDBRANCH  11  13
ENDBRANCH  10  11
ENDBRANCH   9  10
ENDBRANCH   8   9
ENDBRANCH   2   8
ENDBRANCH   1   5
BRANCH   1  22
ATOM     22  C   LIG    1       -4.435  -1.280   0.336  0.00  0.00    +0.035 C 
BRANCH  22  23
ATOM     23  C   LIG    1       -5.421  -0.207   0.133  0.00  0.00    +0.112 C 
BRANCH  23  24
ATOM     24  N   LIG    1       -6.820  -0.337  -0.021  0.00  0.00    -0.302 N 
ATOM     25  C   LIG    1       -7.536   0.899   0.370  0.00  0.00    +0.030 C 
ATOM     26  C   LIG    1       -6.786   2.026   0.725  0.00  0.00    +0.081 C 
ATOM     27  C   LIG    1       -7.404   3.218   1.058  0.00  0.00    +0.039 C 
ATOM     28  C   LIG    1       -8.768   3.353   1.056  0.00  0.00    -0.009 C 
ATOM     29  C   LIG    1       -9.485   2.236   0.704  0.00  0.00    +0.062 C 
ATOM     30  C   LIG    1       -8.878   1.050   0.372  0.00  0.00    +0.016 C 
ATOM     31  S   LIG    1       -9.930  -0.305  -0.049  0.00  0.00    -0.090 S 
ATOM     32  C   LIG    1       -8.873  -1.629  -0.550  0.00  0.00    +0.033 C 
ATOM     33  C   LIG    1       -9.476  -2.754  -1.004  0.00  0.00    +0.013 C 
ATOM     34  C   LIG    1       -8.772  -3.874  -1.408  0.00  0.00    -0.017 C 
ATOM     35  C   LIG    1       -7.402  -3.785  -1.324  0.00  0.00    +0.047 C 
ATOM     36  C   LIG    1       -6.806  -2.633  -0.862  0.00  0.00    +0.006 C 
ATOM     37  C   LIG    1       -7.509  -1.494  -0.450  0.00  0.00    +0.044 C 
BRANCH  27  38
ATOM     38  C   LIG    1       -6.571   4.391   1.441  0.00  0.00    +0.414 C 
ATOM     39  F   LIG    1       -7.178   5.133   2.408  0.00  0.00    -0.166 F 
ATOM     40  F   LIG    1       -5.400   3.880   1.964  0.00  0.00    -0.166 F 
ATOM     41  F   LIG    1       -6.360   5.112   0.296  0.00  0.00    -0.166 F 
ENDBRANCH  27  38
ENDBRANCH  23  24
ENDBRANCH  22  23
ENDBRANCH   1  22
TORSDOF 17
