REMARK  Name = molecules/VIQCWEGEHRBLAC-UHFFFAOYSA-N.pdb
REMARK                            x       y       z     vdW  Elec       q    Type
REMARK                         _______ _______ _______ _____ _____    ______ ____
ROOT
ATOM      1  N   LIG    1       -1.050   0.307   1.203  0.00  0.00    -0.166 NA
ENDROOT
BRANCH   1   2
ATOM      2  S   LIG    1       -1.498   0.287   2.791  0.00  0.00    +0.063 S 
ATOM      3  O   LIG    1       -0.797   1.342   3.650  0.00  0.00    -0.153 OA
ATOM      4  O   LIG    1       -0.876  -1.054   3.438  0.00  0.00    -0.153 OA
BRANCH   2   5
ATOM      5  C   LIG    1       -3.187   0.219   3.300  0.00  0.00    +0.123 A 
ATOM      6  C   LIG    1       -3.645   1.488   3.724  0.00  0.00    +0.139 A 
ATOM      7  N   LIG    1       -4.689   1.533   4.508  0.00  0.00    -0.261 NA
ATOM      8  C   LIG    1       -5.316   0.434   4.961  0.00  0.00    +0.111 A 
ATOM      9  C   LIG    1       -4.800  -0.808   4.513  0.00  0.00    +0.022 A 
ATOM     10  C   LIG    1       -3.744  -0.907   3.656  0.00  0.00    +0.031 A 
ENDBRANCH   2   5
ENDBRANCH   1   2
BRANCH   1  11
ATOM     11  C   LIG    1       -1.290  -0.823   0.371  0.00  0.00    +0.145 C 
BRANCH  11  13
ATOM     12  C   LIG    1       -2.579  -0.025  -1.565  0.00  0.00    +0.007 A 
ATOM     13  C   LIG    1       -2.508  -0.757  -0.370  0.00  0.00    -0.032 A 
ATOM     14  C   LIG    1       -3.681  -1.391   0.090  0.00  0.00    +0.007 A 
ATOM     15  C   LIG    1       -4.872  -1.287  -0.601  0.00  0.00    +0.028 A 
ATOM     16  C   LIG    1       -4.942  -0.543  -1.760  0.00  0.00    +0.065 A 
ATOM     17  C   LIG    1       -3.778   0.077  -2.244  0.00  0.00    +0.028 A 
BRANCH  16  18
ATOM     18  N   LIG    1       -6.173  -0.243  -2.434  0.00  0.00    -0.240 N 
ATOM     19  N   LIG    1       -7.310   0.028  -1.768  0.00  0.00    -0.175 NA
ATOM     20  C   LIG    1       -8.281   0.296  -2.639  0.00  0.00    +0.135 A 
ATOM     21  C   LIG    1       -7.771   0.183  -3.919  0.00  0.00    +0.041 A 
ATOM     22  C   LIG    1       -6.420  -0.169  -3.744  0.00  0.00    +0.114 A 
ENDBRANCH  16  18
ENDBRANCH  11  13
ENDBRANCH   1  11
BRANCH   1  23
ATOM     23  C   LIG    1       -0.053   1.194   0.873  0.00  0.00    +0.165 C 
BRANCH  23  24
ATOM     24  C   LIG    1        1.322   0.672   0.741  0.00  0.00    +0.059 A 
ATOM     25  C   LIG    1        2.130   0.774   1.824  0.00  0.00    +0.025 A 
ATOM     26  C   LIG    1        3.500   0.780   1.674  0.00  0.00    +0.005 A 
ATOM     27  C   LIG    1        3.955   0.650   0.365  0.00  0.00    +0.043 A 
ATOM     28  C   LIG    1        3.109   0.510  -0.700  0.00  0.00    +0.119 A 
ATOM     29  N   LIG    1        1.779   0.535  -0.548  0.00  0.00    -0.236 NA
BRANCH  28  30
ATOM     30  N   LIG    1        3.670   0.129  -1.994  0.00  0.00    -0.319 N 
ATOM     31  H   LIG    1        3.699   0.635  -2.854  0.00  0.00    +0.148 HD
BRANCH  30  32
ATOM     32  C   LIG    1        4.462  -1.122  -1.878  0.00  0.00    +0.223 C 
BRANCH  32  33
ATOM     33  C   LIG    1        5.871  -0.754  -1.948  0.00  0.00    +0.325 C 
ATOM     34  O   LIG    1        6.544  -0.672  -2.983  0.00  0.00    -0.249 OA
BRANCH  33  35
ATOM     35  O   LIG    1        6.496  -0.401  -0.741  0.00  0.00    -0.461 OA
BRANCH  35  36
ATOM     36  C   LIG    1        7.713   0.221  -0.657  0.00  0.00    +0.170 C 
ATOM     37  C   LIG    1        8.822  -0.473  -1.289  0.00  0.00    +0.052 C 
ATOM     38  C   LIG    1        7.492   1.639  -1.360  0.00  0.00    +0.052 C 
ENDBRANCH  35  36
ENDBRANCH  33  35
ENDBRANCH  32  33
ENDBRANCH  30  32
ENDBRANCH  28  30
ENDBRANCH  23  24
ENDBRANCH   1  23
TORSDOF 12
