REMARK  Name = molecules/VJOVAKSZILJDBB-UHFFFAOYSA-N.pdb
REMARK                            x       y       z     vdW  Elec       q    Type
REMARK                         _______ _______ _______ _____ _____    ______ ____
ROOT
ATOM      1  I   LIG    1       -3.095  -1.164  -0.080  0.00  0.00    -0.023 I 
ATOM      2  C   LIG    1       -1.090  -0.494  -0.030  0.00  0.00    +0.093 A 
ATOM      3  C   LIG    1       -0.714   0.834  -0.001  0.00  0.00    +0.058 A 
ATOM      4  C   LIG    1        0.677   0.844   0.027  0.00  0.00    +0.058 A 
ATOM      5  I   LIG    1        1.894   2.543   0.078  0.00  0.00    -0.040 I 
ATOM      6  C   LIG    1        1.078  -0.463   0.014  0.00  0.00    +0.093 A 
ATOM      7  I   LIG    1        3.107  -1.051   0.046  0.00  0.00    -0.023 I 
ATOM      8  I   LIG    1       -1.929   2.538   0.001  0.00  0.00    -0.040 I 
ATOM      9  N   LIG    1        0.014  -1.278  -0.020  0.00  0.00    -0.344 N 
ATOM     10  H   LIG    1        0.059  -2.310  -0.035  0.00  0.00    +0.167 HD
ENDROOT
TORSDOF 0
