REMARK  Name = molecules/VKHAHZOOUSRJNA-GCNJZUOMSA-N.pdb
REMARK                            x       y       z     vdW  Elec       q    Type
REMARK                         _______ _______ _______ _____ _____    ______ ____
ROOT
ATOM      1  C   LIG    1       -0.869  -1.650   2.304  0.00  0.00    +0.015 C 
ATOM      2  C   LIG    1       -1.481  -1.620   0.939  0.00  0.00    +0.012 C 
ATOM      3  C   LIG    1       -2.425  -2.833   0.886  0.00  0.00    +0.132 C 
ATOM      4  C   LIG    1       -3.594  -2.351   1.756  0.00  0.00    +0.049 C 
ATOM      5  C   LIG    1       -3.529  -0.843   1.766  0.00  0.00    +0.008 C 
ATOM      6  C   LIG    1       -2.506  -0.525   0.748  0.00  0.00    +0.006 C 
ATOM      7  C   LIG    1       -1.726   0.755   0.987  0.00  0.00    +0.020 C 
ATOM      8  C   LIG    1       -2.656   1.845   1.269  0.00  0.00    +0.013 C 
ATOM      9  C   LIG    1       -2.981   2.796   0.171  0.00  0.00    +0.036 C 
ATOM     10  C   LIG    1       -1.687   3.151  -0.467  0.00  0.00    -0.041 C 
ATOM     11  C   LIG    1       -1.259   4.371  -0.659  0.00  0.00    +0.050 C 
ATOM     12  C   LIG    1        0.029   4.581  -1.282  0.00  0.00    +0.157 C 
ATOM     13  O   LIG    1        0.649   5.653  -1.089  0.00  0.00    -0.293 OA
ATOM     14  C   LIG    1        0.623   3.550  -2.142  0.00  0.00    +0.083 C 
ATOM     15  C   LIG    1       -0.029   2.215  -2.117  0.00  0.00    +0.043 C 
ATOM     16  C   LIG    1       -0.857   1.999  -0.887  0.00  0.00    -0.044 C 
ATOM     17  C   LIG    1       -0.860   0.869  -0.222  0.00  0.00    -0.055 C 
ATOM     18  C   LIG    1       -0.038  -0.263  -0.661  0.00  0.00    +0.046 C 
ATOM     19  C   LIG    1       -0.524  -1.605  -0.188  0.00  0.00    +0.023 C 
ENDROOT
BRANCH  18  20
ATOM     20  C   LIG    1        1.400  -0.179  -0.333  0.00  0.00    -0.040 A 
ATOM     21  C   LIG    1        1.926   0.377   0.808  0.00  0.00    +0.006 A 
ATOM     22  C   LIG    1        3.296   0.423   1.046  0.00  0.00    +0.023 A 
ATOM     23  C   LIG    1        4.171  -0.098   0.124  0.00  0.00    +0.029 A 
ATOM     24  C   LIG    1        3.673  -0.663  -1.032  0.00  0.00    +0.023 A 
ATOM     25  C   LIG    1        2.327  -0.686  -1.223  0.00  0.00    +0.006 A 
BRANCH  23  26
ATOM     26  N   LIG    1        5.579  -0.059   0.353  0.00  0.00    -0.336 N 
ATOM     27  C   LIG    1        6.103   0.529   1.556  0.00  0.00    +0.129 C 
ATOM     28  C   LIG    1        6.480  -0.616  -0.633  0.00  0.00    +0.129 C 
ENDBRANCH  23  26
ENDBRANCH  18  20
BRANCH   3  29
ATOM     29  C   LIG    1       -2.836  -3.031  -0.482  0.00  0.00    -0.067 C 
ATOM     30  C   LIG    1       -3.199  -3.199  -1.615  0.00  0.00    -0.103 C 
ATOM     31  C   LIG    1       -3.652  -3.380  -2.994  0.00  0.00    +0.106 C 
ENDBRANCH   3  29
BRANCH   3  32
ATOM     32  O   LIG    1       -1.884  -3.937   1.497  0.00  0.00    -0.376 OA
ATOM     33  H   LIG    1       -1.191  -4.357   0.954  0.00  0.00    +0.211 HD
ENDBRANCH   3  32
TORSDOF 4
