REMARK  Name = molecules/VKQFCGNPDRICFG-SFHVURJKSA-N.pdb
REMARK                            x       y       z     vdW  Elec       q    Type
REMARK                         _______ _______ _______ _____ _____    ______ ____
ROOT
ATOM      1  C   LIG    1        0.275  -0.130  -1.442  0.00  0.00    +0.065 C 
ATOM      2  C   LIG    1       -0.621  -0.935  -0.581  0.00  0.00    +0.098 C 
ATOM      3  C   LIG    1       -1.906  -1.283  -1.162  0.00  0.00    +0.065 C 
ATOM      4  C   LIG    1       -2.251  -0.956  -2.420  0.00  0.00    +0.016 C 
ATOM      5  C   LIG    1       -3.549  -1.312  -3.028  0.00  0.00    +0.061 C 
ATOM      6  N   LIG    1       -1.341  -0.232  -3.220  0.00  0.00    -0.321 N 
ATOM      7  H   LIG    1       -1.595   0.023  -4.220  0.00  0.00    +0.152 HD
ATOM      8  C   LIG    1       -0.071   0.157  -2.668  0.00  0.00    +0.016 C 
ATOM      9  C   LIG    1        0.834   0.938  -3.551  0.00  0.00    +0.061 C 
ENDROOT
BRANCH   2  10
ATOM     10  C   LIG    1       -0.588  -0.514   0.829  0.00  0.00    -0.005 A 
ATOM     11  C   LIG    1       -0.262  -1.468   1.818  0.00  0.00    +0.007 A 
ATOM     12  C   LIG    1       -0.133  -1.137   3.141  0.00  0.00    +0.000 A 
ATOM     13  C   LIG    1       -0.312   0.144   3.581  0.00  0.00    +0.002 A 
ATOM     14  C   LIG    1       -0.630   1.098   2.652  0.00  0.00    +0.033 A 
ATOM     15  C   LIG    1       -0.764   0.760   1.300  0.00  0.00    +0.130 A 
BRANCH  15  16
ATOM     16  N   LIG    1       -1.105   1.829   0.459  0.00  0.00    +0.057 N 
ATOM     17  O   LIG    1       -0.719   2.979   0.747  0.00  0.00    -0.126 OA
ATOM     18  O   LIG    1       -1.838   1.655  -0.660  0.00  0.00    -0.126 OA
ENDBRANCH  15  16
ENDBRANCH   2  10
BRANCH   1  19
ATOM     19  C   LIG    1        1.588   0.324  -0.902  0.00  0.00    +0.338 C 
ATOM     20  O   LIG    1        2.392   0.974  -1.569  0.00  0.00    -0.245 OA
BRANCH  19  21
ATOM     21  O   LIG    1        1.964   0.034   0.377  0.00  0.00    -0.461 OA
BRANCH  21  22
ATOM     22  C   LIG    1        3.037   0.292   1.153  0.00  0.00    +0.235 C 
BRANCH  22  23
ATOM     23  C   LIG    1        3.416   1.648   1.571  0.00  0.00    +0.020 C 
ATOM     24  C   LIG    1        4.669   1.618   2.471  0.00  0.00    +0.010 C 
ATOM     25  C   LIG    1        3.744   2.602   0.461  0.00  0.00    +0.010 C 
ENDBRANCH  22  23
ENDBRANCH  21  22
ENDBRANCH  19  21
ENDBRANCH   1  19
BRANCH   3  26
ATOM     26  C   LIG    1       -2.896  -2.006  -0.389  0.00  0.00    +0.337 C 
ATOM     27  O   LIG    1       -2.645  -2.338   0.791  0.00  0.00    -0.245 OA
BRANCH  26  28
ATOM     28  O   LIG    1       -4.145  -2.375  -0.867  0.00  0.00    -0.465 OA
ATOM     29  C   LIG    1       -5.093  -3.081  -0.096  0.00  0.00    +0.280 C 
ENDBRANCH  26  28
ENDBRANCH   3  26
TORSDOF 8
