REMARK  Name = molecules/VLCYCQAOQCDTCN-ZCFIWIBFSA-N.pdb
REMARK                            x       y       z     vdW  Elec       q    Type
REMARK                         _______ _______ _______ _____ _____    ______ ____
ROOT
ATOM      1  C   LIG    1       -1.195  -0.281  -0.206  0.00  0.00    +0.175 C 
ENDROOT
BRANCH   1   2
ATOM      2  C   LIG    1       -1.876  -1.013   0.941  0.00  0.00    +0.372 C 
ATOM      3  F   LIG    1       -1.622  -0.337   2.096  0.00  0.00    -0.207 F 
ATOM      4  F   LIG    1       -1.554  -2.333   0.994  0.00  0.00    -0.207 F 
ENDBRANCH   1   2
BRANCH   1   5
ATOM      5  N   LIG    1       -1.677  -0.982  -1.411  0.00  0.00    -0.311 NA
ATOM      6  H   LIG    1       -1.163  -1.866  -1.566  0.00  0.00    +0.119 HD
ATOM      7  H   LIG    1       -1.703  -0.347  -2.232  0.00  0.00    +0.119 HD
ENDBRANCH   1   5
BRANCH   1   8
ATOM      8  C   LIG    1       -1.689   1.103  -0.298  0.00  0.00    +0.331 C 
ATOM      9  O   LIG    1       -1.412   1.913   0.613  0.00  0.00    -0.249 OA
BRANCH   8  10
ATOM     10  O   LIG    1       -2.447   1.525  -1.362  0.00  0.00    -0.479 OA
ATOM     11  H   LIG    1       -2.247   2.294  -1.963  0.00  0.00    +0.295 HD
ENDBRANCH   8  10
ENDBRANCH   1   8
BRANCH   1  12
ATOM     12  C   LIG    1        0.285  -0.379  -0.090  0.00  0.00    +0.040 C 
BRANCH  12  13
ATOM     13  C   LIG    1        0.916   0.177   1.130  0.00  0.00    +0.017 C 
BRANCH  13  14
ATOM     14  C   LIG    1        2.432  -0.021   0.993  0.00  0.00    +0.078 C 
BRANCH  14  15
ATOM     15  N   LIG    1        2.846   0.684  -0.180  0.00  0.00    -0.330 NA
ATOM     16  H   LIG    1        3.180   1.662   0.041  0.00  0.00    +0.118 HD
ATOM     17  H   LIG    1        3.615   0.234  -0.703  0.00  0.00    +0.118 HD
ENDBRANCH  14  15
ENDBRANCH  13  14
ENDBRANCH  12  13
ENDBRANCH   1  12
TORSDOF 8
