REMARK  Name = molecules/VMIYHDSEFNYJSL-UHFFFAOYSA-N.pdb
REMARK                            x       y       z     vdW  Elec       q    Type
REMARK                         _______ _______ _______ _____ _____    ______ ____
ROOT
ATOM      1 BR   LIG    1       -0.268   3.052   3.286  0.00  0.00    -0.050 Br
ATOM      2  C   LIG    1       -1.027   1.943   1.939  0.00  0.00    +0.019 A 
ATOM      3  C   LIG    1       -2.349   2.078   1.546  0.00  0.00    +0.017 A 
ATOM      4  C   LIG    1       -2.917   1.271   0.555  0.00  0.00    +0.025 A 
ATOM      5  C   LIG    1       -2.145   0.321  -0.046  0.00  0.00    +0.043 A 
ATOM      6  C   LIG    1       -0.802   0.170   0.331  0.00  0.00    +0.024 A 
ATOM      7  C   LIG    1        0.170  -0.745  -0.231  0.00  0.00    +0.093 C 
ATOM      8  N   LIG    1       -0.125  -1.974  -0.583  0.00  0.00    -0.272 NA
ATOM      9  C   LIG    1       -1.413  -2.681  -0.513  0.00  0.00    +0.238 C 
ATOM     10  C   LIG    1       -2.473  -1.892  -1.215  0.00  0.00    +0.239 C 
ATOM     11  O   LIG    1       -3.097  -2.492  -2.107  0.00  0.00    -0.273 OA
ATOM     12  N   LIG    1       -2.841  -0.541  -0.971  0.00  0.00    -0.283 N 
ATOM     13  H   LIG    1       -3.637  -0.091  -1.427  0.00  0.00    +0.155 HD
ATOM     14  C   LIG    1       -0.274   0.977   1.314  0.00  0.00    +0.027 A 
ENDROOT
BRANCH   7  15
ATOM     15  C   LIG    1        1.511  -0.264  -0.397  0.00  0.00    +0.089 A 
ATOM     16  C   LIG    1        2.041   0.960  -0.251  0.00  0.00    +0.030 A 
ATOM     17  C   LIG    1        3.397   1.195  -0.365  0.00  0.00    +0.004 A 
ATOM     18  C   LIG    1        4.285   0.174  -0.642  0.00  0.00    +0.020 A 
ATOM     19  C   LIG    1        3.716  -1.073  -0.791  0.00  0.00    +0.111 A 
ATOM     20  N   LIG    1        2.417  -1.274  -0.676  0.00  0.00    -0.253 NA
ENDBRANCH   7  15
TORSDOF 1
