REMARK  Name = molecules/VMMKGHQPQIEGSQ-UHFFFAOYSA-N.pdb
REMARK                            x       y       z     vdW  Elec       q    Type
REMARK                         _______ _______ _______ _____ _____    ______ ____
ROOT
ATOM      1  C   LIG    1        1.317   0.213   0.331  0.00  0.00    +0.272 C 
ENDROOT
BRANCH   1   2
ATOM      2  O   LIG    1        0.602  -0.094   1.492  0.00  0.00    -0.367 OA
ATOM      3  H   LIG    1        0.707  -1.049   1.759  0.00  0.00    +0.212 HD
ENDBRANCH   1   2
BRANCH   1   4
ATOM      4  P   LIG    1        2.708   1.327   0.726  0.00  0.00    +0.371 P 
ATOM      5  O   LIG    1        2.726   2.523  -0.215  0.00  0.00    -0.255 OA
BRANCH   4   6
ATOM      6  O   LIG    1        2.481   1.933   2.282  0.00  0.00    -0.322 OA
ATOM      7  H   LIG    1        3.076   1.505   2.926  0.00  0.00    +0.220 HD
ENDBRANCH   4   6
BRANCH   4   8
ATOM      8  O   LIG    1        4.189   0.544   0.552  0.00  0.00    -0.322 OA
ATOM      9  H   LIG    1        4.407  -0.066   1.281  0.00  0.00    +0.220 HD
ENDBRANCH   4   8
ENDBRANCH   1   4
BRANCH   1  10
ATOM     10  P   LIG    1        1.942  -1.349  -0.346  0.00  0.00    +0.371 P 
ATOM     11  O   LIG    1        0.812  -2.312  -0.495  0.00  0.00    -0.255 OA
BRANCH  10  12
ATOM     12  O   LIG    1        3.079  -2.029   0.693  0.00  0.00    -0.322 OA
ATOM     13  H   LIG    1        2.702  -2.654   1.340  0.00  0.00    +0.220 HD
ENDBRANCH  10  12
BRANCH  10  14
ATOM     14  O   LIG    1        2.686  -1.013  -1.817  0.00  0.00    -0.322 OA
ATOM     15  H   LIG    1        3.563  -0.587  -1.604  0.00  0.00    +0.220 HD
ENDBRANCH  10  14
ENDBRANCH   1  10
BRANCH   1  16
ATOM     16  C   LIG    1        0.456   0.909  -0.676  0.00  0.00    +0.115 C 
BRANCH  16  17
ATOM     17  C   LIG    1       -0.714   0.147  -1.105  0.00  0.00    +0.047 A 
ATOM     18  N   LIG    1       -1.924   0.199  -0.508  0.00  0.00    -0.303 N 
ATOM     19  C   LIG    1       -2.375   0.911   0.571  0.00  0.00    +0.093 A 
ATOM     20  C   LIG    1       -3.673   0.811   1.018  0.00  0.00    +0.018 A 
ATOM     21  C   LIG    1       -4.521  -0.038   0.340  0.00  0.00    +0.005 A 
ATOM     22  C   LIG    1       -4.039  -0.740  -0.740  0.00  0.00    +0.047 A 
ATOM     23  C   LIG    1       -2.736  -0.631  -1.177  0.00  0.00    +0.138 A 
ATOM     24  N   LIG    1       -2.027  -1.193  -2.184  0.00  0.00    -0.236 NA
ATOM     25  C   LIG    1       -0.767  -0.727  -2.163  0.00  0.00    +0.135 A 
ENDBRANCH  16  17
ENDBRANCH   1  16
TORSDOF 9
