REMARK  Name = molecules/VMXUWOKSQNHOCA-UHFFFAOYSA-N.pdb
REMARK                            x       y       z     vdW  Elec       q    Type
REMARK                         _______ _______ _______ _____ _____    ______ ____
ROOT
ATOM      1  C   LIG    1       -1.411  -1.542   1.512  0.00  0.00    +0.113 C 
ENDROOT
BRANCH   1   2
ATOM      2  S   LIG    1       -0.411  -0.225   2.113  0.00  0.00    -0.149 S 
BRANCH   2   3
ATOM      3  C   LIG    1        0.089   0.957   0.873  0.00  0.00    +0.143 C 
BRANCH   3   6
ATOM      4  C   LIG    1        2.978  -0.326  -0.840  0.00  0.00    +0.119 A 
ATOM      5  O   LIG    1        2.353   0.290   0.131  0.00  0.00    -0.462 OA
ATOM      6  C   LIG    1        1.038   0.314  -0.082  0.00  0.00    +0.115 A 
ATOM      7  C   LIG    1        0.791  -0.325  -1.260  0.00  0.00    +0.046 A 
ATOM      8  C   LIG    1        2.044  -0.731  -1.737  0.00  0.00    +0.046 A 
BRANCH   4   9
ATOM      9  C   LIG    1        4.446  -0.564  -0.980  0.00  0.00    +0.158 C 
BRANCH   9  10
ATOM     10  N   LIG    1        5.214   0.080   0.004  0.00  0.00    -0.301 NA
ATOM     11  C   LIG    1        6.174  -0.650   0.729  0.00  0.00    +0.105 C 
ATOM     12  C   LIG    1        5.179   1.480   0.111  0.00  0.00    +0.105 C 
ENDBRANCH   9  10
ENDBRANCH   4   9
ENDBRANCH   3   6
ENDBRANCH   2   3
ENDBRANCH   1   2
BRANCH   1  13
ATOM     13  C   LIG    1       -2.823  -1.233   1.123  0.00  0.00    +0.233 C 
BRANCH  13  14
ATOM     14  N   LIG    1       -2.897  -0.320   0.034  0.00  0.00    -0.236 N 
ATOM     15  H   LIG    1       -2.090  -0.086  -0.548  0.00  0.00    +0.291 HD
BRANCH  14  16
ATOM     16  C   LIG    1       -4.182   0.260  -0.256  0.00  0.00    +0.278 C 
ATOM     17  C   LIG    1       -5.300  -0.406  -0.385  0.00  0.00    +0.270 C 
BRANCH  16  18
ATOM     18  N   LIG    1       -4.160   1.684  -0.385  0.00  0.00    -0.240 N 
ATOM     19  C   LIG    1       -4.317   2.525   0.769  0.00  0.00    +0.273 C 
ATOM     20  H   LIG    1       -4.030   2.084  -1.320  0.00  0.00    +0.291 HD
ENDBRANCH  16  18
BRANCH  17  21
ATOM     21  N   LIG    1       -5.422  -1.808  -0.262  0.00  0.00    +0.057 N 
ATOM     22  O   LIG    1       -5.910  -2.393   0.914  0.00  0.00    -0.126 OA
ATOM     23  O   LIG    1       -5.086  -2.506  -1.249  0.00  0.00    -0.126 OA
ENDBRANCH  17  21
ENDBRANCH  14  16
ENDBRANCH  13  14
ENDBRANCH   1  13
TORSDOF 10
