REMARK  Name = molecules/VNLMRPAWAMPLNZ-LURJTMIESA-N.pdb
REMARK                            x       y       z     vdW  Elec       q    Type
REMARK                         _______ _______ _______ _____ _____    ______ ____
ROOT
ATOM      1  C   LIG    1       -0.156  -0.121  -0.110  0.00  0.00    +0.129 C 
ATOM      2  C   LIG    1       -0.217   0.646   1.127  0.00  0.00    +0.236 C 
ATOM      3  O   LIG    1        0.417   0.390   2.190  0.00  0.00    -0.274 OA
ATOM      4  N   LIG    1       -1.058   1.809   1.212  0.00  0.00    -0.239 N 
ATOM      5  H   LIG    1       -1.305   2.217   2.144  0.00  0.00    +0.159 HD
ATOM      6  C   LIG    1       -1.576   2.436   0.069  0.00  0.00    +0.312 C 
ATOM      7  O   LIG    1       -2.308   3.447   0.153  0.00  0.00    -0.252 OA
ATOM      8  N   LIG    1       -1.234   1.875  -1.182  0.00  0.00    -0.239 N 
ATOM      9  H   LIG    1       -1.636   2.362  -2.029  0.00  0.00    +0.159 HD
ATOM     10  C   LIG    1       -0.409   0.738  -1.274  0.00  0.00    +0.236 C 
ATOM     11  O   LIG    1        0.119   0.468  -2.404  0.00  0.00    -0.274 OA
ENDROOT
BRANCH   1  12
ATOM     12  C   LIG    1        1.148  -0.869  -0.313  0.00  0.00    +0.057 C 
BRANCH  12  13
ATOM     13  C   LIG    1        2.363  -0.026  -0.368  0.00  0.00    +0.113 C 
ATOM     14  C   LIG    1        3.564  -0.957  -0.581  0.00  0.00    +0.037 C 
BRANCH  13  15
ATOM     15  O   LIG    1        2.587   0.610   0.842  0.00  0.00    -0.392 OA
ATOM     16  H   LIG    1        3.041  -0.043   1.445  0.00  0.00    +0.210 HD
ENDBRANCH  13  15
ENDBRANCH  12  13
ENDBRANCH   1  12
BRANCH   1  17
ATOM     17  C   LIG    1       -1.236  -1.228  -0.117  0.00  0.00    +0.052 C 
BRANCH  17  18
ATOM     18  C   LIG    1       -2.591  -0.679   0.069  0.00  0.00    -0.033 C 
ATOM     19  C   LIG    1       -3.349  -1.029   1.095  0.00  0.00    +0.004 C 
ENDBRANCH  17  18
ENDBRANCH   1  17
TORSDOF 5
