REMARK  Name = molecules/VOCBWIIFXDYGNZ-IXKNJLPQSA-N.pdb
REMARK                            x       y       z     vdW  Elec       q    Type
REMARK                         _______ _______ _______ _____ _____    ______ ____
ROOT
ATOM      1  C   LIG    1       -4.970  -1.326   0.903  0.00  0.00    +0.016 C 
ATOM      2  C   LIG    1       -4.524   0.104   0.796  0.00  0.00    -0.007 C 
ATOM      3  C   LIG    1       -4.624   0.799   2.138  0.00  0.00    +0.019 C 
ATOM      4  C   LIG    1       -6.026   1.048   2.568  0.00  0.00    +0.080 C 
ATOM      5  C   LIG    1       -7.019   0.953   1.471  0.00  0.00    +0.156 C 
ATOM      6  O   LIG    1       -8.232   0.655   1.650  0.00  0.00    -0.293 OA
ATOM      7  C   LIG    1       -6.559   1.219   0.118  0.00  0.00    +0.046 C 
ATOM      8  C   LIG    1       -3.113   0.168   0.343  0.00  0.00    +0.002 C 
ATOM      9  C   LIG    1       -2.100  -0.393   1.277  0.00  0.00    +0.005 C 
ATOM     10  C   LIG    1       -0.708  -0.171   0.794  0.00  0.00    +0.011 C 
ATOM     11  C   LIG    1       -0.469  -0.624  -0.607  0.00  0.00    +0.008 C 
ATOM     12  C   LIG    1       -0.510  -2.124  -0.642  0.00  0.00    +0.015 C 
ATOM     13  C   LIG    1        0.717  -0.029  -1.272  0.00  0.00    +0.183 C 
ATOM     14  C   LIG    1        0.357   0.040  -2.730  0.00  0.00    +0.045 C 
ATOM     15  C   LIG    1       -1.133  -0.303  -2.827  0.00  0.00    +0.008 C 
ATOM     16  C   LIG    1       -1.582  -0.008  -1.462  0.00  0.00    +0.002 C 
ATOM     17  C   LIG    1       -2.907  -0.482  -1.033  0.00  0.00    -0.003 C 
ATOM     18  C   LIG    1       -3.998  -0.148  -1.982  0.00  0.00    +0.008 C 
ATOM     19  C   LIG    1       -4.802   1.052  -1.605  0.00  0.00    +0.032 C 
ATOM     20  C   LIG    1       -5.351   0.814  -0.225  0.00  0.00    -0.060 C 
ENDROOT
BRANCH  13  21
ATOM     21  O   LIG    1        1.937  -0.600  -0.985  0.00  0.00    -0.461 OA
BRANCH  21  22
ATOM     22  C   LIG    1        3.011   0.029  -0.379  0.00  0.00    +0.307 C 
ATOM     23  O   LIG    1        2.819   1.229  -0.078  0.00  0.00    -0.251 OA
BRANCH  22  24
ATOM     24  C   LIG    1        4.300  -0.653  -0.100  0.00  0.00    +0.120 C 
BRANCH  24  25
ATOM     25  C   LIG    1        5.206   0.361   0.561  0.00  0.00    +0.011 C 
BRANCH  25  26
ATOM     26  C   LIG    1        6.563  -0.214   0.899  0.00  0.00    +0.001 C 
BRANCH  26  27
ATOM     27  C   LIG    1        7.351   0.926   1.555  0.00  0.00    -0.000 C 
BRANCH  27  28
ATOM     28  C   LIG    1        8.749   0.441   1.937  0.00  0.00    -0.003 C 
ATOM     29  C   LIG    1        9.505  -0.027   0.717  0.00  0.00    +0.004 C 
ENDBRANCH  27  28
ENDBRANCH  26  27
ENDBRANCH  25  26
ENDBRANCH  24  25
ENDBRANCH  22  24
ENDBRANCH  21  22
ENDBRANCH  13  21
TORSDOF 7
