REMARK  Name = molecules/VOJYZDFYEHKHAP-XGXHKTLJSA-N.pdb
REMARK                            x       y       z     vdW  Elec       q    Type
REMARK                         _______ _______ _______ _____ _____    ______ ____
ROOT
ATOM      1  C   LIG    1       -1.201   0.348   1.647  0.00  0.00    +0.014 C 
ATOM      2  C   LIG    1       -1.741  -0.094   0.324  0.00  0.00    +0.003 C 
ATOM      3  C   LIG    1       -3.171   0.260   0.159  0.00  0.00    +0.089 C 
ATOM      4  C   LIG    1       -3.263   1.462  -0.764  0.00  0.00    +0.040 C 
ATOM      5  C   LIG    1       -1.829   1.958  -0.789  0.00  0.00    +0.007 C 
ATOM      6  C   LIG    1       -1.385  -1.513   0.078  0.00  0.00    +0.010 C 
ATOM      7  C   LIG    1        0.089  -1.698   0.153  0.00  0.00    +0.005 C 
ATOM      8  C   LIG    1        0.912  -0.666  -0.531  0.00  0.00    -0.000 C 
ATOM      9  C   LIG    1        2.263  -0.620   0.103  0.00  0.00    +0.019 C 
ATOM     10  C   LIG    1        2.997   0.647  -0.086  0.00  0.00    -0.063 C 
ATOM     11  C   LIG    1        4.212   0.707   0.439  0.00  0.00    +0.045 C 
ATOM     12  C   LIG    1        4.704  -0.464   1.144  0.00  0.00    +0.156 C 
ATOM     13  O   LIG    1        5.490  -0.337   2.091  0.00  0.00    -0.293 OA
ATOM     14  C   LIG    1        4.270  -1.816   0.735  0.00  0.00    +0.079 C 
ATOM     15  C   LIG    1        2.491   1.833  -0.805  0.00  0.00    +0.031 C 
ATOM     16  C   LIG    1        1.173   1.546  -1.487  0.00  0.00    +0.008 C 
ATOM     17  C   LIG    1        3.169  -1.744  -0.328  0.00  0.00    +0.016 C 
ATOM     18  C   LIG    1        0.351   0.717  -0.522  0.00  0.00    -0.003 C 
ATOM     19  C   LIG    1       -1.087   0.680  -0.833  0.00  0.00    +0.001 C 
ENDROOT
BRANCH   3  20
ATOM     20  O   LIG    1       -3.648   0.717   1.411  0.00  0.00    -0.384 OA
ATOM     21  H   LIG    1       -3.362   1.677   1.537  0.00  0.00    +0.211 HD
ENDBRANCH   3  20
BRANCH   3  22
ATOM     22  C   LIG    1       -4.042  -0.841  -0.249  0.00  0.00    +0.000 C 
ATOM     23  C   LIG    1       -5.242  -1.042   0.286  0.00  0.00    +0.007 C 
ENDBRANCH   3  22
TORSDOF 2
