REMARK  Name = molecules/VOMKSBFLAZZBOW-UUWRZZSWSA-N.pdb
REMARK                            x       y       z     vdW  Elec       q    Type
REMARK                         _______ _______ _______ _____ _____    ______ ____
ROOT
ATOM      1  C   LIG    1       -4.118   0.110   0.764  0.00  0.00    +0.039 A 
ATOM      2  C   LIG    1       -3.807  -0.830   1.718  0.00  0.00    +0.258 A 
ATOM      3  N   LIG    1       -2.618  -0.789   2.396  0.00  0.00    -0.293 N 
ATOM      4  C   LIG    1       -2.340  -1.811   3.378  0.00  0.00    +0.127 C 
ATOM      5  C   LIG    1       -1.555  -1.302   4.528  0.00  0.00    +0.026 C 
ATOM      6  C   LIG    1       -0.330  -0.527   4.158  0.00  0.00    +0.054 C 
ATOM      7  C   LIG    1       -0.396   0.255   2.923  0.00  0.00    +0.242 C 
ATOM      8  C   LIG    1       -1.703   0.149   2.178  0.00  0.00    +0.154 A 
ATOM      9  N   LIG    1       -2.002   1.086   1.231  0.00  0.00    -0.235 NA
ATOM     10  O   LIG    1       -4.641  -1.743   1.965  0.00  0.00    -0.267 OA
ATOM     11  C   LIG    1       -3.154   1.080   0.546  0.00  0.00    +0.049 A 
ATOM     12  C   LIG    1       -3.406   2.121  -0.466  0.00  0.00    +0.066 C 
ENDROOT
BRANCH   7  13
ATOM     13  O   LIG    1        0.625   0.108   2.000  0.00  0.00    -0.453 OA
BRANCH  13  14
ATOM     14  C   LIG    1        1.407   1.129   1.561  0.00  0.00    +0.308 C 
ATOM     15  O   LIG    1        1.160   2.258   2.031  0.00  0.00    -0.251 OA
BRANCH  14  16
ATOM     16  C   LIG    1        2.536   0.928   0.541  0.00  0.00    +0.120 C 
BRANCH  16  17
ATOM     17  C   LIG    1        3.090   2.227   0.166  0.00  0.00    +0.011 C 
BRANCH  17  18
ATOM     18  C   LIG    1        4.104   2.327  -0.865  0.00  0.00    +0.001 C 
BRANCH  18  19
ATOM     19  C   LIG    1        5.419   1.738  -0.877  0.00  0.00    +0.000 C 
BRANCH  19  20
ATOM     20  C   LIG    1        5.770   0.334  -1.027  0.00  0.00    +0.000 C 
BRANCH  20  21
ATOM     21  C   LIG    1        5.366  -0.746  -0.137  0.00  0.00    +0.000 C 
BRANCH  21  22
ATOM     22  C   LIG    1        6.031  -2.053  -0.591  0.00  0.00    -0.000 C 
BRANCH  22  23
ATOM     23  C   LIG    1        7.530  -1.972  -0.589  0.00  0.00    -0.000 C 
BRANCH  23  24
ATOM     24  C   LIG    1        8.103  -1.638   0.747  0.00  0.00    -0.000 C 
BRANCH  24  25
ATOM     25  C   LIG    1        9.592  -1.567   0.686  0.00  0.00    -0.000 C 
BRANCH  25  26
ATOM     26  C   LIG    1       10.102  -0.526  -0.268  0.00  0.00    -0.000 C 
BRANCH  26  27
ATOM     27  C   LIG    1       11.624  -0.508  -0.251  0.00  0.00    -0.000 C 
BRANCH  27  28
ATOM     28  C   LIG    1       12.136   0.544  -1.229  0.00  0.00    -0.000 C 
BRANCH  28  29
ATOM     29  C   LIG    1       13.631   0.600  -1.262  0.00  0.00    -0.003 C 
ATOM     30  C   LIG    1       14.240  -0.715  -1.685  0.00  0.00    +0.004 C 
ENDBRANCH  28  29
ENDBRANCH  27  28
ENDBRANCH  26  27
ENDBRANCH  25  26
ENDBRANCH  24  25
ENDBRANCH  23  24
ENDBRANCH  22  23
ENDBRANCH  21  22
ENDBRANCH  20  21
ENDBRANCH  19  20
ENDBRANCH  18  19
ENDBRANCH  17  18
ENDBRANCH  16  17
ENDBRANCH  14  16
ENDBRANCH  13  14
ENDBRANCH   7  13
BRANCH   1  31
ATOM     31  C   LIG    1       -5.405   0.071   0.067  0.00  0.00    +0.058 C 
BRANCH  31  32
ATOM     32  C   LIG    1       -5.551  -0.980  -0.992  0.00  0.00    +0.089 C 
BRANCH  32  36
ATOM     33  C   LIG    1       -9.525   0.289  -1.727  0.00  0.00    +0.044 C 
ATOM     34  C   LIG    1       -9.300  -1.107  -1.244  0.00  0.00    +0.025 C 
ATOM     35  C   LIG    1       -7.924  -1.434  -0.793  0.00  0.00    +0.085 C 
ATOM     36  N   LIG    1       -6.870  -0.857  -1.526  0.00  0.00    -0.302 NA
ATOM     37  C   LIG    1       -7.159   0.312  -2.268  0.00  0.00    +0.085 C 
ATOM     38  C   LIG    1       -8.242   1.080  -1.549  0.00  0.00    +0.025 C 
BRANCH  33  45
ATOM     39  F   LIG    1      -16.063   0.451  -0.507  0.00  0.00    -0.205 F 
ATOM     40  C   LIG    1      -14.734   0.477  -0.714  0.00  0.00    +0.127 A 
ATOM     41  C   LIG    1      -14.021   1.510  -0.138  0.00  0.00    +0.088 A 
ATOM     42  C   LIG    1      -12.644   1.576  -0.327  0.00  0.00    +0.170 A 
ATOM     43  O   LIG    1      -11.732   2.439   0.100  0.00  0.00    -0.354 OA
ATOM     44  N   LIG    1      -10.564   2.087  -0.337  0.00  0.00    -0.082 NA
ATOM     45  C   LIG    1      -10.665   0.972  -1.073  0.00  0.00    +0.094 A 
ATOM     46  C   LIG    1      -11.997   0.627  -1.078  0.00  0.00    +0.045 A 
ATOM     47  C   LIG    1      -12.702  -0.399  -1.651  0.00  0.00    +0.016 A 
ATOM     48  C   LIG    1      -14.064  -0.478  -1.474  0.00  0.00    +0.039 A 
ENDBRANCH  33  45
ENDBRANCH  32  36
ENDBRANCH  31  32
ENDBRANCH   1  31
TORSDOF 20
