REMARK  Name = molecules/VOXZDWNPVJITMN-ZBRFXRBCSA-N.pdb
REMARK                            x       y       z     vdW  Elec       q    Type
REMARK                         _______ _______ _______ _____ _____    ______ ____
ROOT
ATOM      1  C   LIG    1       -2.218  -0.075  -1.371  0.00  0.00    +0.014 C 
ATOM      2  C   LIG    1       -2.162   0.510   0.021  0.00  0.00    -0.003 C 
ATOM      3  C   LIG    1       -1.377  -0.405   0.975  0.00  0.00    +0.001 C 
ATOM      4  C   LIG    1       -2.247  -1.604   1.016  0.00  0.00    +0.007 C 
ATOM      5  C   LIG    1       -3.651  -1.055   0.944  0.00  0.00    +0.032 C 
ATOM      6  C   LIG    1       -0.031  -0.582   0.376  0.00  0.00    +0.000 C 
ATOM      7  C   LIG    1        0.743  -1.590   1.202  0.00  0.00    +0.009 C 
ATOM      8  C   LIG    1        1.981  -1.924   0.444  0.00  0.00    +0.036 C 
ATOM      9  C   LIG    1        2.620  -0.695  -0.086  0.00  0.00    -0.040 A 
ATOM     10  C   LIG    1        2.041   0.552  -0.102  0.00  0.00    -0.041 A 
ATOM     11  C   LIG    1        2.787   1.594  -0.639  0.00  0.00    +0.008 A 
ATOM     12  C   LIG    1        4.059   1.404  -1.141  0.00  0.00    +0.046 A 
ATOM     13  C   LIG    1        4.633   0.149  -1.121  0.00  0.00    +0.117 A 
ATOM     14  C   LIG    1        3.913  -0.876  -0.598  0.00  0.00    +0.049 A 
ATOM     15  C   LIG    1        0.695   0.731   0.435  0.00  0.00    +0.023 C 
ATOM     16  C   LIG    1       -0.067   1.859  -0.195  0.00  0.00    +0.009 C 
ATOM     17  C   LIG    1       -3.519   0.436   0.622  0.00  0.00    +0.121 C 
ATOM     18  C   LIG    1       -1.522   1.848   0.070  0.00  0.00    +0.010 C 
ENDROOT
BRANCH  13  19
ATOM     19  O   LIG    1        5.907  -0.075  -1.617  0.00  0.00    -0.507 OA
ATOM     20  H   LIG    1        6.693   0.019  -0.974  0.00  0.00    +0.292 HD
ENDBRANCH  13  19
BRANCH  17  21
ATOM     21  O   LIG    1       -4.471   0.800  -0.320  0.00  0.00    -0.391 OA
ATOM     22  H   LIG    1       -4.724   1.748  -0.133  0.00  0.00    +0.210 HD
ENDBRANCH  17  21
TORSDOF 2
