REMARK  Name = molecules/VPAWVRUHMJVRHU-VGDKGRGNSA-N.pdb
REMARK                            x       y       z     vdW  Elec       q    Type
REMARK                         _______ _______ _______ _____ _____    ______ ____
ROOT
ATOM      1  P   LIG    1        0.157   0.063   0.242  0.00  0.00    +0.348 P 
ATOM      2  O   LIG    1        0.354  -0.524   1.614  0.00  0.00    -0.254 OA
ATOM      3  O   LIG    1        0.597   1.698   0.362  0.00  0.00    -0.305 OA
ATOM      4  C   LIG    1        1.912   1.948   0.083  0.00  0.00    +0.174 C 
ATOM      5  C   LIG    1        2.881   0.844   0.291  0.00  0.00    +0.080 C 
ATOM      6  C   LIG    1        2.612  -0.453  -0.358  0.00  0.00    +0.234 C 
ATOM      7  N   LIG    1        1.280  -0.657  -0.873  0.00  0.00    -0.204 NA
ATOM      8  H   LIG    1        1.170  -0.272  -1.847  0.00  0.00    +0.135 HD
ENDROOT
BRANCH   1   9
ATOM      9  N   LIG    1       -1.518  -0.122  -0.301  0.00  0.00    -0.217 NA
BRANCH   9  10
ATOM     10  C   LIG    1       -2.163  -1.024   0.583  0.00  0.00    +0.111 C 
BRANCH  10  11
ATOM     11  C   LIG    1       -1.830  -2.450   0.271  0.00  0.00    +0.124 C 
ATOM     12 CL   LIG    1       -0.137  -2.884   0.321  0.00  0.00    -0.124 Cl
ENDBRANCH  10  11
ENDBRANCH   9  10
BRANCH   9  13
ATOM     13  C   LIG    1       -2.058   1.233  -0.229  0.00  0.00    +0.111 C 
BRANCH  13  14
ATOM     14  C   LIG    1       -3.434   1.339  -0.791  0.00  0.00    +0.124 C 
ATOM     15 CL   LIG    1       -3.968   3.042  -0.645  0.00  0.00    -0.124 Cl
ENDBRANCH  13  14
ENDBRANCH   9  13
ENDBRANCH   1   9
BRANCH   6  16
ATOM     16  O   LIG    1        2.860  -1.472   0.570  0.00  0.00    -0.218 OA
BRANCH  16  17
ATOM     17  O   LIG    1        3.767  -2.327   0.135  0.00  0.00    -0.249 OA
ATOM     18  H   LIG    1        3.832  -2.252  -0.872  0.00  0.00    +0.253 HD
ENDBRANCH  16  17
ENDBRANCH   6  16
TORSDOF 7
