REMARK  Name = molecules/VPMWFZKOWULPGT-UHFFFAOYSA-N.pdb
REMARK                            x       y       z     vdW  Elec       q    Type
REMARK                         _______ _______ _______ _____ _____    ______ ____
ROOT
ATOM      1  O   LIG    1       -0.362  -1.397  -1.184  0.00  0.00    -0.270 OA
ATOM      2  C   LIG    1        0.073  -0.428  -0.474  0.00  0.00    +0.248 C 
ATOM      3  N   LIG    1       -0.701   0.482   0.287  0.00  0.00    -0.290 N 
ATOM      4  C   LIG    1        0.218   1.391   0.912  0.00  0.00    +0.144 C 
ATOM      5  C   LIG    1        1.574   0.999   0.504  0.00  0.00    -0.017 A 
ATOM      6  C   LIG    1        2.845   1.508   0.794  0.00  0.00    +0.028 A 
ATOM      7  C   LIG    1        3.991   0.954   0.278  0.00  0.00    +0.068 A 
ATOM      8 CL   LIG    1        5.540   1.641   0.681  0.00  0.00    -0.082 Cl
ATOM      9  C   LIG    1        3.858  -0.143  -0.554  0.00  0.00    +0.124 A 
ATOM     10  C   LIG    1        2.648  -0.671  -0.864  0.00  0.00    +0.043 A 
ATOM     11  C   LIG    1        1.492  -0.089  -0.326  0.00  0.00    +0.044 A 
ENDROOT
BRANCH   3  12
ATOM     12  C   LIG    1       -2.144   0.485   0.403  0.00  0.00    +0.077 C 
ATOM     13  C   LIG    1       -2.626  -0.811   1.071  0.00  0.00    +0.022 C 
ATOM     14  C   LIG    1       -4.093  -0.517   1.406  0.00  0.00    +0.002 C 
ATOM     15  C   LIG    1       -4.833  -0.507   0.097  0.00  0.00    +0.000 C 
ATOM     16  C   LIG    1       -4.266   0.357  -0.945  0.00  0.00    +0.002 C 
ATOM     17  C   LIG    1       -2.820   0.623  -0.929  0.00  0.00    +0.022 C 
ENDBRANCH   3  12
BRANCH   9  18
ATOM     18  S   LIG    1        5.309  -0.856  -1.215  0.00  0.00    +0.057 S 
ATOM     19  O   LIG    1        6.064   0.152  -2.038  0.00  0.00    -0.153 OA
ATOM     20  O   LIG    1        4.993  -2.042  -2.069  0.00  0.00    -0.153 OA
BRANCH  18  21
ATOM     21  N   LIG    1        6.300  -1.389   0.095  0.00  0.00    -0.203 NA
ATOM     22  H   LIG    1        6.135  -0.821   0.947  0.00  0.00    +0.144 HD
ATOM     23  H   LIG    1        6.044  -2.382   0.292  0.00  0.00    +0.144 HD
ENDBRANCH  18  21
ENDBRANCH   9  18
TORSDOF 3
