REMARK  Name = molecules/VPRFDABTJNLKKR-XHZSPPMBSA-N.pdb
REMARK                            x       y       z     vdW  Elec       q    Type
REMARK                         _______ _______ _______ _____ _____    ______ ____
ROOT
ATOM      1  C   LIG    1        2.581  -2.812  -0.281  0.00  0.00    +0.048 C 
ATOM      2  C   LIG    1        3.146  -1.519  -0.671  0.00  0.00    -0.002 A 
ATOM      3  C   LIG    1        2.390  -0.347  -0.596  0.00  0.00    +0.128 A 
ATOM      4  O   LIG    1        1.083  -0.387  -0.150  0.00  0.00    -0.485 OA
ATOM      5  C   LIG    1        0.469   0.683   0.535  0.00  0.00    +0.108 C 
ATOM      6  C   LIG    1        0.320   0.254   1.979  0.00  0.00    +0.055 C 
ATOM      7  C   LIG    1        1.308   1.943   0.528  0.00  0.00    +0.052 C 
ATOM      8  C   LIG    1        2.003   2.090  -0.835  0.00  0.00    +0.043 C 
ATOM      9  C   LIG    1        2.893   0.886  -0.956  0.00  0.00    +0.001 A 
ATOM     10  C   LIG    1        4.192   0.959  -1.406  0.00  0.00    -0.001 A 
ATOM     11  C   LIG    1        4.969  -0.181  -1.493  0.00  0.00    +0.138 A 
ATOM     12  C   LIG    1        4.766   2.261  -1.799  0.00  0.00    +0.048 C 
ATOM     13  C   LIG    1        4.454  -1.403  -1.131  0.00  0.00    -0.001 A 
ATOM     14  C   LIG    1        5.337  -2.593  -1.245  0.00  0.00    +0.048 C 
ENDROOT
BRANCH  11  15
ATOM     15  O   LIG    1        6.271  -0.090  -1.947  0.00  0.00    -0.423 OA
BRANCH  15  16
ATOM     16  C   LIG    1        7.347   0.277  -1.100  0.00  0.00    +0.356 C 
ATOM     17  O   LIG    1        7.005   0.505   0.076  0.00  0.00    -0.246 OA
BRANCH  16  18
ATOM     18  C   LIG    1        8.677   0.342  -1.694  0.00  0.00    +0.201 C 
ATOM     19  C   LIG    1        9.086  -1.034  -2.258  0.00  0.00    +0.068 C 
ATOM     20  C   LIG    1        8.690   1.253  -2.930  0.00  0.00    +0.068 C 
BRANCH  18  21
ATOM     21  O   LIG    1        9.697   0.754  -0.863  0.00  0.00    -0.475 OA
BRANCH  21  22
ATOM     22  C   LIG    1       10.109   0.158   0.307  0.00  0.00    +0.122 A 
ATOM     23  C   LIG    1        9.646   0.540   1.531  0.00  0.00    +0.047 A 
ATOM     24  C   LIG    1       10.064  -0.070   2.697  0.00  0.00    +0.023 A 
ATOM     25  C   LIG    1       10.974  -1.090   2.626  0.00  0.00    +0.041 A 
ATOM     26 CL   LIG    1       11.538  -1.895   4.079  0.00  0.00    -0.084 Cl
ATOM     27  C   LIG    1       11.454  -1.488   1.388  0.00  0.00    +0.023 A 
ATOM     28  C   LIG    1       11.040  -0.887   0.237  0.00  0.00    +0.047 A 
ENDBRANCH  21  22
ENDBRANCH  18  21
ENDBRANCH  16  18
ENDBRANCH  15  16
ENDBRANCH  11  15
BRANCH   5  29
ATOM     29  C   LIG    1       -0.872   1.059  -0.071  0.00  0.00    +0.048 C 
BRANCH  29  30
ATOM     30  C   LIG    1       -1.845  -0.066  -0.051  0.00  0.00    +0.004 C 
BRANCH  30  31
ATOM     31  C   LIG    1       -3.180   0.186  -0.628  0.00  0.00    +0.003 C 
BRANCH  31  32
ATOM     32  C   LIG    1       -4.011   1.258  -0.025  0.00  0.00    -0.014 C 
ATOM     33  C   LIG    1       -3.569   2.660  -0.293  0.00  0.00    +0.007 C 
BRANCH  32  34
ATOM     34  C   LIG    1       -4.312   1.031   1.440  0.00  0.00    +0.003 C 
BRANCH  34  35
ATOM     35  C   LIG    1       -5.053  -0.220   1.739  0.00  0.00    +0.001 C 
BRANCH  35  36
ATOM     36  C   LIG    1       -6.426  -0.312   1.080  0.00  0.00    +0.003 C 
BRANCH  36  37
ATOM     37  C   LIG    1       -7.330   0.770   1.501  0.00  0.00    -0.014 C 
ATOM     38  C   LIG    1       -7.357   0.781   3.042  0.00  0.00    +0.007 C 
BRANCH  37  39
ATOM     39  C   LIG    1       -8.689   0.817   0.948  0.00  0.00    +0.003 C 
BRANCH  39  40
ATOM     40  C   LIG    1       -9.677  -0.222   1.158  0.00  0.00    +0.001 C 
BRANCH  40  41
ATOM     41  C   LIG    1       -9.643  -1.606   0.749  0.00  0.00    +0.003 C 
BRANCH  41  42
ATOM     42  C   LIG    1       -9.597  -2.030  -0.656  0.00  0.00    -0.017 C 
ATOM     43  C   LIG    1      -10.903  -1.758  -1.403  0.00  0.00    +0.007 C 
ATOM     44  C   LIG    1       -8.413  -1.609  -1.460  0.00  0.00    +0.007 C 
ENDBRANCH  41  42
ENDBRANCH  40  41
ENDBRANCH  39  40
ENDBRANCH  37  39
ENDBRANCH  36  37
ENDBRANCH  35  36
ENDBRANCH  34  35
ENDBRANCH  32  34
ENDBRANCH  31  32
ENDBRANCH  30  31
ENDBRANCH  29  30
ENDBRANCH   5  29
TORSDOF 17
