REMARK  Name = molecules/VQDBNKDJNJQRDG-NSHDSACASA-N.pdb
REMARK                            x       y       z     vdW  Elec       q    Type
REMARK                         _______ _______ _______ _____ _____    ______ ____
ROOT
ATOM      1  C   UNK A  0        1.524  -0.687  -0.145  0.00  0.00    +0.072 A 
ATOM      2  C   UNK A  1        1.632  -1.619   0.834  0.00  0.00    +0.029 A 
ATOM      3  C   UNK A  1        2.735  -1.637   1.712  0.00  0.00    +0.049 A 
ATOM      4  C   UNK A  1        3.682  -0.671   1.526  0.00  0.00    +0.140 A 
ATOM      5  C   UNK A  1        3.556   0.281   0.498  0.00  0.00    +0.108 A 
ATOM      6  N   UNK A  1        2.474   0.256  -0.333  0.00  0.00    -0.248 NA
ENDROOT
BRANCH   4   7
ATOM      7  O   UNK A  1        4.789  -0.612   2.350  0.00  0.00    -0.505 OA
ATOM      8  H   UNK A  1        5.519   0.136   2.216  0.00  0.00    +0.292 HD
ENDBRANCH   4   7
BRANCH   1   9
ATOM      9  C   UNK A  0        0.170  -0.489  -0.784  0.00  0.00    +0.176 C 
BRANCH   9  10
ATOM     10  O   UNK A  0       -0.312  -1.527  -1.425  0.00  0.00    -0.384 OA
ATOM     11  H   UNK A  0       -0.695  -2.293  -1.037  0.00  0.00    +0.210 HD
ENDBRANCH   9  10
BRANCH   9  12
ATOM     12  C   UNK A  0       -0.708   0.073   0.334  0.00  0.00    +0.119 C 
BRANCH  12  13
ATOM     13  N   UNK A  0       -1.861   0.721   0.145  0.00  0.00    -0.308 NA
ATOM     14  H   UNK A  0       -2.015   1.480   0.888  0.00  0.00    +0.123 HD
BRANCH  13  15
ATOM     15  C   UNK A  0       -3.089   0.278  -0.282  0.00  0.00    +0.011 C 
ATOM     16  C   UNK A  0       -3.664  -0.948   0.402  0.00  0.00    +0.027 C 
ATOM     17  C   UNK A  0       -4.101   1.409   0.141  0.00  0.00    +0.027 C 
ATOM     18  C   UNK A  0       -3.265   0.210  -1.776  0.00  0.00    +0.027 C 
ENDBRANCH  13  15
ENDBRANCH  12  13
ENDBRANCH   9  12
ENDBRANCH   1   9
BRANCH   5  19
ATOM     19  C   UNK A  1        4.514   1.409   0.564  0.00  0.00    +0.214 C 
BRANCH  19  20
ATOM     20  O   UNK A  1        5.546   1.442  -0.370  0.00  0.00    -0.389 OA
ATOM     21  H   UNK A  1        6.266   0.772  -0.215  0.00  0.00    +0.210 HD
ENDBRANCH  19  20
ENDBRANCH   5  19
TORSDOF 8
