REMARK  Name = molecules/VQKLRVZQQYVIJW-UHFFFAOYSA-N.pdb
REMARK                            x       y       z     vdW  Elec       q    Type
REMARK                         _______ _______ _______ _____ _____    ______ ____
ROOT
ATOM      1  C   LIG    1       -1.215  -0.751   0.088  0.00  0.00    +0.155 A 
ATOM      2  C   LIG    1       -0.797   0.560   0.176  0.00  0.00    +0.028 A 
ATOM      3  C   LIG    1       -1.702   1.560   0.422  0.00  0.00    +0.012 A 
ATOM      4  C   LIG    1       -1.216   2.862   0.499  0.00  0.00    +0.001 A 
ATOM      5  C   LIG    1        0.141   3.122   0.329  0.00  0.00    +0.001 A 
ATOM      6  C   LIG    1        1.015   2.091   0.084  0.00  0.00    +0.012 A 
ATOM      7  C   LIG    1        0.546   0.812   0.007  0.00  0.00    +0.028 A 
ATOM      8  C   LIG    1        1.391  -0.274  -0.240  0.00  0.00    +0.155 A 
ATOM      9  N   LIG    1        0.927  -1.526  -0.314  0.00  0.00    -0.283 N 
ATOM     10  H   LIG    1        1.627  -2.299  -0.504  0.00  0.00    +0.188 HD
ATOM     11  N   LIG    1       -0.358  -1.767  -0.153  0.00  0.00    -0.283 N 
ATOM     12  H   LIG    1       -0.689  -2.770  -0.218  0.00  0.00    +0.188 HD
ENDROOT
BRANCH   1  13
ATOM     13  N   LIG    1       -2.458  -1.054   0.236  0.00  0.00    -0.152 NA
BRANCH  13  14
ATOM     14  N   LIG    1       -2.957  -2.355   0.162  0.00  0.00    -0.234 NA
ATOM     15  H   LIG    1       -3.656  -2.638   0.882  0.00  0.00    +0.142 HD
ATOM     16  H   LIG    1       -2.681  -3.054  -0.557  0.00  0.00    +0.142 HD
ENDBRANCH  13  14
ENDBRANCH   1  13
BRANCH   8  17
ATOM     17  N   LIG    1        2.653  -0.058  -0.401  0.00  0.00    -0.152 NA
BRANCH  17  18
ATOM     18  N   LIG    1        3.584  -1.069  -0.652  0.00  0.00    -0.234 NA
ATOM     19  H   LIG    1        4.491  -1.022  -0.122  0.00  0.00    +0.142 HD
ATOM     20  H   LIG    1        3.444  -1.846  -1.312  0.00  0.00    +0.142 HD
ENDBRANCH  17  18
ENDBRANCH   8  17
TORSDOF 4
