REMARK  Name = molecules/VQOXZBDYSJBXMA-MSHYPYPPSA-N.pdb
REMARK                            x       y       z     vdW  Elec       q    Type
REMARK                         _______ _______ _______ _____ _____    ______ ____
ROOT
ATOM      1  C   LIG    1       -4.683  -2.397   0.134  0.00  0.00    +0.019 C 
ATOM      2  C   LIG    1       -4.201  -1.603   1.329  0.00  0.00    +0.010 C 
ATOM      3  C   LIG    1       -5.014  -3.778   0.508  0.00  0.00    +0.002 C 
ATOM      4  C   LIG    1       -5.161  -4.784  -0.337  0.00  0.00    +0.000 C 
ATOM      5  C   LIG    1       -4.337  -5.023  -1.505  0.00  0.00    -0.000 C 
ATOM      6  C   LIG    1       -3.033  -4.837  -1.559  0.00  0.00    -0.004 C 
ATOM      7  C   LIG    1       -2.115  -5.201  -0.421  0.00  0.00    +0.004 C 
ATOM      8  C   LIG    1       -0.772  -4.529  -0.707  0.00  0.00    +0.005 C 
ATOM      9  C   LIG    1       -0.195  -5.261  -1.869  0.00  0.00    +0.000 C 
ATOM     10  C   LIG    1        0.743  -6.188  -1.818  0.00  0.00    +0.022 C 
ATOM     11  C   LIG    1        2.057  -6.033  -1.208  0.00  0.00    -0.027 C 
ATOM     12  C   LIG    1        2.971  -5.129  -1.518  0.00  0.00    -0.026 C 
ATOM     13  C   LIG    1        2.740  -3.930  -2.308  0.00  0.00    +0.022 C 
ATOM     14  C   LIG    1        1.900  -2.957  -2.061  0.00  0.00    +0.004 C 
ATOM     15  C   LIG    1        1.767  -2.225  -0.809  0.00  0.00    +0.003 C 
ATOM     16  C   LIG    1        2.803  -1.779  -0.099  0.00  0.00    +0.028 C 
ATOM     17  C   LIG    1        4.028  -1.227  -0.755  0.00  0.00    +0.128 C 
ATOM     18  C   LIG    1        3.758   0.172  -1.162  0.00  0.00    +0.064 C 
ATOM     19  C   LIG    1        3.968   1.204  -0.102  0.00  0.00    +0.140 C 
ATOM     20  O   LIG    1        2.798   1.383   0.669  0.00  0.00    -0.344 OA
ATOM     21  C   LIG    1        2.847   2.518   1.438  0.00  0.00    +0.172 C 
ATOM     22  C   LIG    1        4.194   3.161   1.524  0.00  0.00    +0.097 C 
ATOM     23  C   LIG    1        4.806   3.467   0.184  0.00  0.00    +0.136 C 
ATOM     24  C   LIG    1        1.800   3.538   1.020  0.00  0.00    +0.098 C 
ATOM     25  C   LIG    1        1.009   4.051   2.200  0.00  0.00    +0.148 C 
ATOM     26  C   LIG    1       -0.415   4.302   1.785  0.00  0.00    +0.143 C 
ATOM     27  C   LIG    1       -0.717   5.780   1.689  0.00  0.00    +0.036 C 
ATOM     28  C   LIG    1       -1.379   6.159   0.392  0.00  0.00    +0.034 C 
ATOM     29  C   LIG    1       -2.778   6.681   0.632  0.00  0.00    +0.117 C 
ATOM     30  C   LIG    1       -3.794   5.647   0.191  0.00  0.00    +0.062 C 
ATOM     31  C   LIG    1       -4.750   5.368   1.334  0.00  0.00    +0.119 C 
ATOM     32  C   LIG    1       -5.025   3.896   1.477  0.00  0.00    +0.063 C 
ATOM     33  C   LIG    1       -6.015   3.413   0.423  0.00  0.00    +0.128 C 
ATOM     34  C   LIG    1       -6.365   1.972   0.770  0.00  0.00    +0.152 C 
ATOM     35  C   LIG    1       -7.792   1.683   0.503  0.00  0.00    +0.310 C 
ATOM     36  O   LIG    1       -8.566   2.673   0.468  0.00  0.00    -0.251 OA
ATOM     37  O   LIG    1       -8.219   0.419   0.311  0.00  0.00    -0.461 OA
ATOM     38  C   LIG    1       -7.912  -0.531  -0.654  0.00  0.00    +0.179 C 
ATOM     39  C   LIG    1       -7.101  -1.690  -0.108  0.00  0.00    +0.055 C 
ATOM     40  C   LIG    1       -7.180  -1.577   1.400  0.00  0.00    +0.014 C 
ATOM     41  C   LIG    1       -7.377   0.015  -1.949  0.00  0.00    +0.052 C 
ATOM     42  C   LIG    1        4.171   2.541  -0.827  0.00  0.00    +0.155 C 
ATOM     43  C   LIG    1       -5.739  -1.692  -0.675  0.00  0.00    +0.124 C 
ENDROOT
BRANCH  21  44
ATOM     44  O   LIG    1        2.497   2.135   2.752  0.00  0.00    -0.364 OA
ATOM     45  H   LIG    1        1.830   1.413   2.755  0.00  0.00    +0.213 HD
ENDBRANCH  21  44
BRANCH  23  46
ATOM     46  O   LIG    1        4.581   4.781  -0.225  0.00  0.00    -0.391 OA
ATOM     47  H   LIG    1        5.271   4.974  -0.931  0.00  0.00    +0.210 HD
ENDBRANCH  23  46
BRANCH  25  48
ATOM     48  O   LIG    1        1.545   5.261   2.683  0.00  0.00    -0.389 OA
ATOM     49  H   LIG    1        2.171   5.673   2.042  0.00  0.00    +0.210 HD
ENDBRANCH  25  48
BRANCH  33  50
ATOM     50  O   LIG    1       -5.358   3.507  -0.803  0.00  0.00    -0.391 OA
ATOM     51  H   LIG    1       -5.312   2.659  -1.296  0.00  0.00    +0.210 HD
ENDBRANCH  33  50
BRANCH  31  52
ATOM     52  O   LIG    1       -5.972   6.012   1.093  0.00  0.00    -0.392 OA
ATOM     53  H   LIG    1       -5.847   7.008   1.139  0.00  0.00    +0.210 HD
ENDBRANCH  31  52
BRANCH  29  54
ATOM     54  O   LIG    1       -3.002   7.855  -0.122  0.00  0.00    -0.392 OA
ATOM     55  H   LIG    1       -3.235   7.619  -1.049  0.00  0.00    +0.210 HD
ENDBRANCH  29  54
BRANCH  26  56
ATOM     56  O   LIG    1       -0.732   3.732   0.556  0.00  0.00    -0.389 OA
ATOM     57  H   LIG    1       -1.354   2.962   0.633  0.00  0.00    +0.210 HD
ENDBRANCH  26  56
BRANCH  42  58
ATOM     58  C   LIG    1        4.960   2.392  -2.054  0.00  0.00    +0.313 C 
ATOM     59  O   LIG    1        4.482   2.714  -3.194  0.00  0.00    -0.251 OA
BRANCH  58  60
ATOM     60  O   LIG    1        6.266   1.899  -2.087  0.00  0.00    -0.480 OA
ATOM     61  H   LIG    1        7.021   2.580  -2.033  0.00  0.00    +0.295 HD
ENDBRANCH  58  60
ENDBRANCH  42  58
BRANCH  43  62
ATOM     62  O   LIG    1       -5.798  -2.397  -1.903  0.00  0.00    -0.391 OA
ATOM     63  H   LIG    1       -6.487  -3.100  -1.794  0.00  0.00    +0.210 HD
ENDBRANCH  43  62
BRANCH  17  64
ATOM     64  O   LIG    1        5.090  -1.447   0.053  0.00  0.00    -0.345 OA
BRANCH  64  65
ATOM     65  C   LIG    1        6.065  -2.278  -0.378  0.00  0.00    +0.281 C 
ATOM     66  O   LIG    1        6.293  -3.385   0.476  0.00  0.00    -0.343 OA
ATOM     67  C   LIG    1        7.263  -4.144  -0.206  0.00  0.00    +0.148 C 
ATOM     68  C   LIG    1        7.146  -5.603   0.104  0.00  0.00    +0.041 C 
ATOM     69  C   LIG    1        8.613  -3.561   0.104  0.00  0.00    +0.162 C 
ATOM     70  C   LIG    1        8.421  -2.109   0.486  0.00  0.00    +0.116 C 
ATOM     71  C   LIG    1        7.376  -1.522  -0.417  0.00  0.00    +0.189 C 
BRANCH  70  72
ATOM     72  N   LIG    1        8.077  -2.002   1.885  0.00  0.00    -0.323 NA
ATOM     73  H   LIG    1        8.259  -2.906   2.364  0.00  0.00    +0.119 HD
ATOM     74  H   LIG    1        7.162  -1.579   2.067  0.00  0.00    +0.119 HD
ENDBRANCH  70  72
BRANCH  69  75
ATOM     75  O   LIG    1        9.464  -3.571  -1.018  0.00  0.00    -0.388 OA
ATOM     76  H   LIG    1       10.384  -3.429  -0.656  0.00  0.00    +0.210 HD
ENDBRANCH  69  75
BRANCH  71  77
ATOM     77  O   LIG    1        7.178  -0.191   0.012  0.00  0.00    -0.385 OA
ATOM     78  H   LIG    1        8.022   0.314  -0.058  0.00  0.00    +0.210 HD
ENDBRANCH  71  77
ENDBRANCH  64  65
ENDBRANCH  17  64
TORSDOF 15
