REMARK  Name = molecules/VRBKIVRKKCLPHA-UHFFFAOYSA-N.pdb
REMARK                            x       y       z     vdW  Elec       q    Type
REMARK                         _______ _______ _______ _____ _____    ______ ____
ROOT
ATOM      1  N   LIG    1        2.967  -0.511  -1.091  0.00  0.00    -0.276 N 
ATOM      2  C   LIG    1        3.079  -1.687  -0.485  0.00  0.00    +0.134 A 
ATOM      3  N   LIG    1        2.094  -1.763   0.460  0.00  0.00    -0.154 NA
ATOM      4  N   LIG    1        1.405  -0.636   0.411  0.00  0.00    -0.213 N 
ATOM      5  C   LIG    1        1.921   0.147  -0.533  0.00  0.00    +0.347 A 
ATOM      6  O   LIG    1        1.496   1.292  -0.834  0.00  0.00    -0.245 OA
ENDROOT
BRANCH   2   7
ATOM      7  C   LIG    1        4.034  -2.794  -0.692  0.00  0.00    +0.073 C 
ATOM      8  C   LIG    1        5.198  -2.624   0.230  0.00  0.00    +0.012 C 
ENDBRANCH   2   7
BRANCH   1   9
ATOM      9  C   LIG    1        3.777   0.011  -2.144  0.00  0.00    +0.169 C 
BRANCH   9  10
ATOM     10  C   LIG    1        4.938   0.843  -1.740  0.00  0.00    +0.250 C 
BRANCH  10  11
ATOM     11  O   LIG    1        5.901   0.246  -0.944  0.00  0.00    -0.490 OA
BRANCH  11  12
ATOM     12  C   LIG    1        7.018   0.952  -0.521  0.00  0.00    +0.121 A 
ATOM     13  C   LIG    1        7.931   0.285   0.270  0.00  0.00    +0.045 A 
ATOM     14  C   LIG    1        9.074   0.877   0.749  0.00  0.00    +0.004 A 
ATOM     15  C   LIG    1        9.311   2.188   0.421  0.00  0.00    +0.000 A 
ATOM     16  C   LIG    1        8.427   2.902  -0.369  0.00  0.00    +0.004 A 
ATOM     17  C   LIG    1        7.276   2.258  -0.834  0.00  0.00    +0.045 A 
ENDBRANCH  11  12
ENDBRANCH  10  11
ENDBRANCH   9  10
ENDBRANCH   1   9
BRANCH   4  18
ATOM     18  C   LIG    1        0.265  -0.356   1.280  0.00  0.00    +0.150 C 
BRANCH  18  19
ATOM     19  C   LIG    1       -1.010  -0.852   0.614  0.00  0.00    +0.039 C 
BRANCH  19  20
ATOM     20  C   LIG    1       -2.169  -0.549   1.536  0.00  0.00    +0.086 C 
BRANCH  20  21
ATOM     21  N   LIG    1       -3.427  -0.978   1.014  0.00  0.00    -0.299 NA
ATOM     22  C   LIG    1       -4.458  -0.641   1.974  0.00  0.00    +0.103 C 
ATOM     23  C   LIG    1       -5.153   0.619   1.429  0.00  0.00    +0.120 C 
ATOM     24  N   LIG    1       -5.905   0.177   0.284  0.00  0.00    -0.327 N 
ATOM     25  C   LIG    1       -5.189  -0.669  -0.663  0.00  0.00    +0.120 C 
ATOM     26  C   LIG    1       -3.716  -0.565  -0.321  0.00  0.00    +0.103 C 
BRANCH  24  27
ATOM     27  C   LIG    1       -7.256   0.544   0.093  0.00  0.00    +0.031 A 
ATOM     28  C   LIG    1       -7.992   1.381   0.872  0.00  0.00    +0.043 A 
ATOM     29  C   LIG    1       -9.326   1.683   0.606  0.00  0.00    +0.043 A 
ATOM     30 CL   LIG    1      -10.220   2.768   1.645  0.00  0.00    -0.083 Cl
ATOM     31  C   LIG    1       -9.961   1.135  -0.478  0.00  0.00    +0.020 A 
ATOM     32  C   LIG    1       -9.226   0.284  -1.277  0.00  0.00    +0.003 A 
ATOM     33  C   LIG    1       -7.910  -0.013  -1.012  0.00  0.00    +0.023 A 
ENDBRANCH  24  27
ENDBRANCH  20  21
ENDBRANCH  19  20
ENDBRANCH  18  19
ENDBRANCH   4  18
TORSDOF 10
