REMARK  Name = molecules/VRDIULHPQTYCLN-UHFFFAOYSA-N.pdb
REMARK                            x       y       z     vdW  Elec       q    Type
REMARK                         _______ _______ _______ _____ _____    ______ ____
ROOT
ATOM      1  C   LIG    1       -0.321  -0.206   0.083  0.00  0.00    +0.042 A 
ATOM      2  C   LIG    1        0.985   0.200   0.169  0.00  0.00    +0.033 A 
ATOM      3  C   LIG    1        2.022  -0.463  -0.466  0.00  0.00    +0.006 A 
ATOM      4  C   LIG    1        1.690  -1.587  -1.215  0.00  0.00    +0.030 A 
ATOM      5  C   LIG    1        0.366  -1.961  -1.275  0.00  0.00    +0.111 A 
ATOM      6  N   LIG    1       -0.622  -1.292  -0.643  0.00  0.00    -0.260 NA
ENDROOT
BRANCH   3   7
ATOM      7  C   LIG    1        3.382   0.013  -0.339  0.00  0.00    +0.077 C 
ATOM      8  S   LIG    1        4.316  -0.514   0.874  0.00  0.00    -0.035 S 
BRANCH   7   9
ATOM      9  N   LIG    1        3.882   0.937  -1.280  0.00  0.00    -0.352 N 
ATOM     10  H   LIG    1        4.679   1.547  -1.015  0.00  0.00    +0.143 HD
ATOM     11  H   LIG    1        3.461   1.023  -2.252  0.00  0.00    +0.143 HD
ENDBRANCH   7   9
ENDBRANCH   3   7
BRANCH   1  12
ATOM     12  C   LIG    1       -1.343   0.596   0.815  0.00  0.00    +0.055 C 
BRANCH  12  13
ATOM     13  C   LIG    1       -2.731   0.027   0.626  0.00  0.00    +0.003 C 
ATOM     14  C   LIG    1       -3.707   0.871   1.381  0.00  0.00    +0.004 C 
ENDBRANCH  12  13
ENDBRANCH   1  12
TORSDOF 4
