REMARK  Name = molecules/VRORTNGXAKZJML-UHFFFAOYSA-N.pdb
REMARK                            x       y       z     vdW  Elec       q    Type
REMARK                         _______ _______ _______ _____ _____    ______ ____
ROOT
ATOM      1  C   LIG    1       -0.429   0.932  -0.140  0.00  0.00    +0.155 A 
ATOM      2  C   LIG    1        0.161   0.800   1.103  0.00  0.00    +0.057 A 
ATOM      3  I   LIG    1       -0.902   1.396   2.823  0.00  0.00    -0.040 I 
ATOM      4  C   LIG    1        1.440   0.277   1.169  0.00  0.00    +0.021 A 
ATOM      5  C   LIG    1        2.134  -0.113   0.035  0.00  0.00    -0.045 A 
ATOM      6  C   LIG    1        1.550   0.016  -1.210  0.00  0.00    +0.021 A 
ATOM      7  C   LIG    1        0.273   0.538  -1.280  0.00  0.00    +0.057 A 
ATOM      8  I   LIG    1       -0.588   0.720  -3.202  0.00  0.00    -0.040 I 
ENDROOT
BRANCH   1   9
ATOM      9  O   LIG    1       -1.687   1.437  -0.310  0.00  0.00    -0.454 OA
BRANCH   9  10
ATOM     10  C   LIG    1       -2.849   0.714  -0.317  0.00  0.00    +0.130 A 
ATOM     11  C   LIG    1       -2.802  -0.651  -0.142  0.00  0.00    +0.050 A 
ATOM     12  C   LIG    1       -3.955  -1.417  -0.143  0.00  0.00    +0.050 A 
ATOM     13  C   LIG    1       -5.193  -0.834  -0.320  0.00  0.00    +0.130 A 
ATOM     14  C   LIG    1       -5.253   0.526  -0.496  0.00  0.00    +0.058 A 
ATOM     15  I   LIG    1       -7.136   1.417  -0.766  0.00  0.00    -0.040 I 
ATOM     16  C   LIG    1       -4.086   1.287  -0.493  0.00  0.00    +0.064 A 
BRANCH  13  17
ATOM     17  O   LIG    1       -6.362  -1.617  -0.321  0.00  0.00    -0.506 OA
ATOM     18  H   LIG    1       -7.238  -1.137  -0.455  0.00  0.00    +0.292 HD
ENDBRANCH  13  17
ENDBRANCH   9  10
ENDBRANCH   1   9
BRANCH   5  19
ATOM     19  C   LIG    1        3.519  -0.679   0.117  0.00  0.00    +0.046 C 
BRANCH  19  20
ATOM     20  C   LIG    1        4.470   0.475   0.021  0.00  0.00    +0.125 C 
BRANCH  20  21
ATOM     21  C   LIG    1        5.888   0.065   0.087  0.00  0.00    +0.305 C 
ATOM     22  O   LIG    1        6.754   0.975   0.014  0.00  0.00    -0.251 OA
BRANCH  21  23
ATOM     23  O   LIG    1        6.326  -1.232   0.223  0.00  0.00    -0.481 OA
ATOM     24  H   LIG    1        6.049  -2.007  -0.344  0.00  0.00    +0.295 HD
ENDBRANCH  21  23
ENDBRANCH  20  21
ENDBRANCH  19  20
ENDBRANCH   5  19
TORSDOF 7
