REMARK  Name = molecules/VRQVVMDWGGWHTJ-CQSZACIVSA-N.pdb
REMARK                            x       y       z     vdW  Elec       q    Type
REMARK                         _______ _______ _______ _____ _____    ______ ____
ROOT
ATOM      1  C   LIG    1        2.887  -2.211  -0.276  0.00  0.00    +0.122 A 
ATOM      2  C   LIG    1        1.862  -1.375   0.107  0.00  0.00    +0.070 A 
ATOM      3  C   LIG    1        1.981   0.002   0.038  0.00  0.00    +0.048 A 
ATOM      4  N   LIG    1        0.882   0.843   0.440  0.00  0.00    -0.313 N 
ATOM      5  C   LIG    1        0.885   2.267   0.399  0.00  0.00    +0.115 C 
ATOM      6  C   LIG    1       -0.242   2.970   0.824  0.00  0.00    +0.007 C 
ATOM      7  C   LIG    1       -0.289   4.334   0.811  0.00  0.00    -0.002 C 
ATOM      8  C   LIG    1        0.787   5.047   0.373  0.00  0.00    +0.001 C 
ATOM      9  C   LIG    1        1.900   4.368  -0.046  0.00  0.00    +0.013 C 
ATOM     10  C   LIG    1        1.958   3.018  -0.038  0.00  0.00    +0.020 C 
ATOM     11  S   LIG    1        3.444   2.229  -0.583  0.00  0.00    -0.089 S 
ATOM     12  C   LIG    1        3.181   0.479  -0.437  0.00  0.00    +0.034 A 
ATOM     13  C   LIG    1        4.213  -0.346  -0.824  0.00  0.00    +0.020 A 
ATOM     14  C   LIG    1        4.093  -1.714  -0.753  0.00  0.00    +0.047 A 
ENDROOT
BRANCH   1  16
ATOM     15  C   LIG    1        3.666  -4.536  -0.536  0.00  0.00    +0.277 C 
ATOM     16  O   LIG    1        2.712  -3.582  -0.184  0.00  0.00    -0.495 OA
ENDBRANCH   1  16
BRANCH   4  17
ATOM     17  C   LIG    1       -0.320   0.197   0.896  0.00  0.00    +0.111 C 
BRANCH  17  18
ATOM     18  C   LIG    1       -1.302  -0.147  -0.217  0.00  0.00    +0.017 C 
ATOM     19  C   LIG    1       -1.814   0.942  -1.041  0.00  0.00    +0.010 C 
BRANCH  18  20
ATOM     20  C   LIG    1       -2.400  -0.936   0.441  0.00  0.00    +0.088 C 
BRANCH  20  21
ATOM     21  N   LIG    1       -3.462  -1.335  -0.465  0.00  0.00    -0.308 NA
ATOM     22  C   LIG    1       -4.210  -2.442   0.230  0.00  0.00    +0.104 C 
ATOM     23  C   LIG    1       -4.496  -0.270  -0.472  0.00  0.00    +0.104 C 
ENDBRANCH  20  21
ENDBRANCH  18  20
ENDBRANCH  17  18
ENDBRANCH   4  17
TORSDOF 5
