REMARK  Name = molecules/VRYMTAVOXVTQEF-UHFFFAOYSA-N.pdb
REMARK                            x       y       z     vdW  Elec       q    Type
REMARK                         _______ _______ _______ _____ _____    ______ ____
ROOT
ATOM      1  C   LIG    1        0.472   0.870   1.343  0.00  0.00    +0.000 A 
ATOM      2  C   LIG    1       -0.604   1.615   1.770  0.00  0.00    +0.054 A 
ATOM      3  C   LIG    1       -1.854   1.425   1.217  0.00  0.00    +0.135 A 
ATOM      4  C   LIG    1       -2.046   0.492   0.234  0.00  0.00    -0.005 A 
ATOM      5  C   LIG    1       -0.956  -0.263  -0.197  0.00  0.00    +0.053 A 
ATOM      6  C   LIG    1       -3.381   0.239  -0.406  0.00  0.00    +0.047 C 
ATOM      7  C   LIG    1        0.302  -0.095   0.334  0.00  0.00    +0.124 A 
ENDROOT
BRANCH   1   8
ATOM      8  C   LIG    1        1.803   1.058   1.925  0.00  0.00    +0.017 C 
ATOM      9  C   LIG    1        1.892   2.254   2.834  0.00  0.00    +0.012 C 
ATOM     10  C   LIG    1        2.933   1.081   0.949  0.00  0.00    +0.012 C 
ENDBRANCH   1   8
BRANCH   3  11
ATOM     11  O   LIG    1       -2.951   2.175   1.642  0.00  0.00    -0.426 OA
BRANCH  11  12
ATOM     12  C   LIG    1       -3.775   1.707   2.671  0.00  0.00    +0.309 C 
ATOM     13  O   LIG    1       -3.478   0.590   3.185  0.00  0.00    -0.251 OA
ATOM     14  C   LIG    1       -4.951   2.439   3.179  0.00  0.00    +0.136 C 
ENDBRANCH  11  12
ENDBRANCH   3  11
BRANCH   7  15
ATOM     15  O   LIG    1        1.431  -0.785  -0.019  0.00  0.00    -0.490 OA
BRANCH  15  16
ATOM     16  C   LIG    1        1.655  -1.767  -0.968  0.00  0.00    +0.244 C 
BRANCH  16  17
ATOM     17  C   LIG    1        1.450  -1.274  -2.353  0.00  0.00    +0.124 C 
BRANCH  17  18
ATOM     18  N   LIG    1        1.655  -2.237  -3.385  0.00  0.00    -0.305 NA
ATOM     19  C   LIG    1        2.998  -2.671  -3.557  0.00  0.00    +0.104 C 
ATOM     20  C   LIG    1        0.639  -3.191  -3.566  0.00  0.00    +0.104 C 
ENDBRANCH  17  18
ENDBRANCH  16  17
ENDBRANCH  15  16
ENDBRANCH   7  15
TORSDOF 7
