REMARK  Name = molecules/VSEIDZLLWQQJGK-WSUYNKMOSA-N.pdb
REMARK                            x       y       z     vdW  Elec       q    Type
REMARK                         _______ _______ _______ _____ _____    ______ ____
ROOT
ATOM      1  C   UNK A  0        1.570  -0.089  -1.205  0.00  0.00    +0.010 C 
ATOM      2  C   UNK A  0        1.246   1.264  -1.364  0.00  0.00    +0.066 C 
ATOM      3  N   UNK A  0       -0.125   1.422  -1.123  0.00  0.00    -0.248 NA
ATOM      4  C   UNK A  0       -0.431   2.739  -1.118  0.00  0.00    +0.062 C 
ATOM      5  C   UNK A  0       -1.410   3.227  -0.286  0.00  0.00    +0.053 C 
ATOM      6  C   UNK A  0       -2.340   2.468   0.467  0.00  0.00    +0.045 A 
ATOM      7  C   UNK A  0       -2.608   2.848   1.794  0.00  0.00    -0.018 A 
ATOM      8  C   UNK A  0       -2.121   4.059   2.562  0.00  0.00    +0.046 C 
ATOM      9  C   UNK A  0       -3.474   1.901   2.277  0.00  0.00    +0.003 A 
ATOM     10  C   UNK A  0       -3.703   0.981   1.225  0.00  0.00    +0.049 A 
ATOM     11  C   UNK A  0       -4.514  -0.141   1.493  0.00  0.00    +0.054 C 
ATOM     12  C   UNK A  0       -4.333  -1.419   0.925  0.00  0.00    +0.070 C 
ATOM     13  C   UNK A  0       -5.042  -2.685   0.983  0.00  0.00    -0.020 C 
ATOM     14  C   UNK A  0       -6.271  -2.979   1.778  0.00  0.00    +0.046 C 
ATOM     15  C   UNK A  0       -4.383  -3.534   0.182  0.00  0.00    -0.017 C 
ATOM     16  C   UNK A  0       -3.265  -2.853  -0.395  0.00  0.00    +0.070 C 
ATOM     17  C   UNK A  0       -2.252  -3.203  -1.258  0.00  0.00    +0.054 C 
ATOM     18  C   UNK A  0       -1.017  -2.524  -1.441  0.00  0.00    +0.045 A 
ATOM     19  N   UNK A  0       -0.583  -1.357  -0.964  0.00  0.00    -0.354 N 
ATOM     20  H   UNK A  0       -1.141  -0.639  -0.290  0.00  0.00    +0.166 HD
ATOM     21  C   UNK A  0       -0.029  -3.130  -2.229  0.00  0.00    -0.011 A 
ATOM     22  C   UNK A  0        1.054  -2.253  -2.210  0.00  0.00    +0.087 A 
ATOM     23  C   UNK A  0       -0.039  -4.440  -2.964  0.00  0.00    +0.047 C 
ATOM     24  N   UNK A  0       -3.300  -1.596   0.096  0.00  0.00    -0.247 NA
ATOM     25  N   UNK A  0       -3.009   1.349   0.137  0.00  0.00    -0.354 N 
ATOM     26  H   UNK A  0       -3.021   0.839  -0.846  0.00  0.00    +0.166 HD
ATOM     27  C   UNK A  0        0.480   3.263  -2.130  0.00  0.00    -0.002 C 
ATOM     28  C   UNK A  0        0.491   4.724  -2.165  0.00  0.00    +0.037 C 
ATOM     29  C   UNK A  0        1.783   2.578  -1.673  0.00  0.00    +0.001 C 
ATOM     30  C   UNK A  0        0.672  -1.172  -1.416  0.00  0.00    +0.060 A 
ENDROOT
BRANCH   9  31
ATOM     31  C   UNK A  0       -4.032   1.889   3.651  0.00  0.00    +0.002 C 
ATOM     32  C   UNK A  0       -5.231   2.075   3.969  0.00  0.00    +0.009 C 
ENDBRANCH   9  31
BRANCH  15  33
ATOM     33  C   UNK A  0       -4.798  -4.951  -0.059  0.00  0.00    +0.034 C 
ATOM     34  C   UNK A  0       -5.148  -5.187  -1.493  0.00  0.00    +0.009 C 
ENDBRANCH  15  33
BRANCH  22  35
ATOM     35  C   UNK A  0        2.302  -2.549  -2.921  0.00  0.00    +0.339 C 
ATOM     36  O   UNK A  0        3.200  -3.225  -2.417  0.00  0.00    -0.245 OA
BRANCH  35  37
ATOM     37  O   UNK A  0        2.479  -2.058  -4.187  0.00  0.00    -0.477 OA
ATOM     38  H   UNK A  0        2.157  -1.111  -4.486  0.00  0.00    +0.295 HD
ENDBRANCH  35  37
ENDBRANCH  22  35
BRANCH   1  39
ATOM     39  C   UNK A  0        2.966  -0.308  -0.715  0.00  0.00    +0.135 C 
BRANCH  39  40
ATOM     40  C   UNK A  0        3.004  -0.134   0.790  0.00  0.00    +0.218 C 
ATOM     41  O   UNK A  0        2.007   0.238   1.473  0.00  0.00    -0.275 OA
ATOM     42  N   ASP A  1        4.232  -0.414   1.419  0.00  0.00    -0.302 N 
ATOM     43  H   ASP A  1        5.098  -0.699   0.851  0.00  0.00    +0.150 HD
BRANCH  42  44
ATOM     44  CA  ASP A  1        4.460  -0.335   2.849  0.00  0.00    +0.192 C 
BRANCH  44  45
ATOM     45  C   ASP A  1        5.587   0.568   3.108  0.00  0.00    +0.326 C 
ATOM     46  O   ASP A  1        6.202   1.132   2.185  0.00  0.00    -0.249 OA
BRANCH  45  47
ATOM     47  OXT ASP A  1        5.968   0.795   4.433  0.00  0.00    -0.479 OA
ATOM     48  HXT ASP A  1        5.318   0.604   5.205  0.00  0.00    +0.295 HD
ENDBRANCH  45  47
ENDBRANCH  44  45
BRANCH  44  49
ATOM     49  CB  ASP A  1        4.827  -1.724   3.385  0.00  0.00    +0.154 C 
BRANCH  49  50
ATOM     50  CG  ASP A  1        6.062  -2.266   2.765  0.00  0.00    +0.307 C 
ATOM     51  OD1 ASP A  1        6.015  -2.710   1.607  0.00  0.00    -0.251 OA
BRANCH  50  52
ATOM     52  OD2 ASP A  1        7.273  -2.307   3.406  0.00  0.00    -0.481 OA
ATOM     53  HD2 ASP A  1        7.826  -3.152   3.489  0.00  0.00    +0.295 HD
ENDBRANCH  50  52
ENDBRANCH  49  50
ENDBRANCH  44  49
ENDBRANCH  42  44
ENDBRANCH  39  40
ENDBRANCH   1  39
BRANCH  29  54
ATOM     54  C   UNK A  0        2.811   2.658  -2.752  0.00  0.00    +0.040 C 
BRANCH  54  55
ATOM     55  C   UNK A  0        3.348   3.991  -3.081  0.00  0.00    +0.124 C 
BRANCH  55  56
ATOM     56  C   UNK A  0        4.050   4.652  -1.948  0.00  0.00    +0.305 C 
ATOM     57  O   UNK A  0        4.188   4.085  -0.855  0.00  0.00    -0.251 OA
BRANCH  56  58
ATOM     58  O   UNK A  0        4.533   5.930  -2.184  0.00  0.00    -0.481 OA
ATOM     59  H   UNK A  0        4.061   6.584  -2.798  0.00  0.00    +0.295 HD
ENDBRANCH  56  58
ENDBRANCH  55  56
ENDBRANCH  54  55
ENDBRANCH  29  54
TORSDOF 16
