REMARK  Name = molecules/VSLIUWLPFRVCDL-UHFFFAOYSA-N.pdb
REMARK                            x       y       z     vdW  Elec       q    Type
REMARK                         _______ _______ _______ _____ _____    ______ ____
ROOT
ATOM      1  C   LIG    1       -3.115   0.117   0.197  0.00  0.00    +0.088 A 
ATOM      2  C   LIG    1       -2.287   1.134   0.619  0.00  0.00    +0.027 A 
ATOM      3  C   LIG    1       -0.911   1.020   0.588  0.00  0.00    +0.012 A 
ATOM      4  C   LIG    1       -0.308  -0.125   0.131  0.00  0.00    +0.002 A 
ATOM      5  C   LIG    1       -1.158  -1.143  -0.292  0.00  0.00    +0.012 A 
ATOM      6  C   LIG    1       -2.532  -1.028  -0.261  0.00  0.00    +0.027 A 
ENDROOT
BRANCH   4   7
ATOM      7  C   LIG    1        1.139  -0.293   0.079  0.00  0.00    +0.090 A 
ATOM      8  C   LIG    1        2.057   0.653   0.474  0.00  0.00    +0.121 A 
ATOM      9  N   LIG    1        3.279   0.138   0.279  0.00  0.00    -0.306 N 
ATOM     10  C   LIG    1        4.501   0.667   0.508  0.00  0.00    +0.093 A 
ATOM     11  C   LIG    1        5.647  -0.056   0.228  0.00  0.00    +0.018 A 
ATOM     12  C   LIG    1        5.550  -1.327  -0.289  0.00  0.00    +0.005 A 
ATOM     13  C   LIG    1        4.301  -1.847  -0.515  0.00  0.00    +0.047 A 
ATOM     14  C   LIG    1        3.166  -1.099  -0.224  0.00  0.00    +0.138 A 
ATOM     15  N   LIG    1        1.845  -1.351  -0.342  0.00  0.00    -0.228 NA
ENDBRANCH   4   7
BRANCH   1  17
ATOM     16  C   LIG    1       -5.489   1.086  -1.181  0.00  0.00    +0.200 C 
ATOM     17  S   LIG    1       -4.831   0.376   0.282  0.00  0.00    -0.006 S 
ATOM     18  O   LIG    1       -5.115   1.240   1.498  0.00  0.00    -0.170 OA
ATOM     19  O   LIG    1       -5.474  -0.967   0.586  0.00  0.00    -0.170 OA
ENDBRANCH   1  17
TORSDOF 2
