REMARK  Name = molecules/VSNHCAURESNICA-UHFFFAOYSA-N.pdb
REMARK                            x       y       z     vdW  Elec       q    Type
REMARK                         _______ _______ _______ _____ _____    ______ ____
ROOT
ATOM      1  N   LIG    1        1.613   0.036  -0.240  0.00  0.00    -0.312 N 
ATOM      2  H   LIG    1        2.380  -0.382   0.332  0.00  0.00    +0.147 HD
ATOM      3  C   LIG    1        0.303  -0.501  -0.119  0.00  0.00    +0.320 C 
ATOM      4  O   LIG    1        0.201  -1.738   0.083  0.00  0.00    -0.251 OA
ATOM      5  N   LIG    1       -0.866   0.313  -0.218  0.00  0.00    -0.181 N 
ATOM      6  H   LIG    1       -0.768   1.338  -0.386  0.00  0.00    +0.184 HD
ATOM      7  H   LIG    1        1.788   0.835  -0.894  0.00  0.00    +0.147 HD
ENDROOT
BRANCH   5   8
ATOM      8  O   LIG    1       -2.106  -0.208  -0.101  0.00  0.00    -0.294 OA
ATOM      9  H   LIG    1       -2.544   0.307   0.637  0.00  0.00    +0.241 HD
ENDBRANCH   5   8
TORSDOF 1
