REMARK  Name = molecules/VSQQQLOSPVPRAZ-RRKCRQDMSA-N.pdb
REMARK                            x       y       z     vdW  Elec       q    Type
REMARK                         _______ _______ _______ _____ _____    ______ ____
ROOT
ATOM      1  O   LIG    1        0.027   2.195  -0.445  0.00  0.00    -0.246 OA
ATOM      2  C   LIG    1        1.023   1.428  -0.396  0.00  0.00    +0.331 A 
ATOM      3  N   LIG    1        2.271   1.951  -0.306  0.00  0.00    -0.274 N 
ATOM      4  C   LIG    1        3.350   1.167  -0.252  0.00  0.00    +0.266 A 
ATOM      5  O   LIG    1        4.519   1.615  -0.169  0.00  0.00    -0.267 OA
ATOM      6  C   LIG    1        3.221  -0.212  -0.287  0.00  0.00    +0.135 A 
ATOM      7  C   LIG    1        1.941  -0.708  -0.378  0.00  0.00    +0.111 A 
ATOM      8  H   LIG    1        2.377   2.980  -0.280  0.00  0.00    +0.173 HD
ATOM      9  N   LIG    1        0.854   0.102  -0.432  0.00  0.00    -0.273 N 
ENDROOT
BRANCH   9  10
ATOM     10  C1* LIG    1       -0.443  -0.482  -0.526  0.00  0.00    +0.226 C 
ATOM     11  C2* LIG    1       -1.043  -0.773   0.856  0.00  0.00    +0.088 C 
ATOM     12  C3* LIG    1       -2.473  -1.102   0.405  0.00  0.00    +0.150 C 
ATOM     13  C4* LIG    1       -2.637  -0.100  -0.709  0.00  0.00    +0.175 C 
ATOM     14  O4* LIG    1       -1.396   0.316  -1.103  0.00  0.00    -0.348 OA
BRANCH  12  15
ATOM     15  O3* LIG    1       -2.432  -2.397  -0.133  0.00  0.00    -0.389 OA
ATOM     16  H3* LIG    1       -2.720  -2.381  -1.088  0.00  0.00    +0.210 HD
ENDBRANCH  12  15
BRANCH  13  17
ATOM     17  C5* LIG    1       -3.361   1.105  -0.104  0.00  0.00    +0.190 C 
BRANCH  17  18
ATOM     18  O5* LIG    1       -3.471   2.101  -1.044  0.00  0.00    -0.392 OA
ATOM     19  H5* LIG    1       -4.302   2.604  -0.881  0.00  0.00    +0.210 HD
ENDBRANCH  17  18
ENDBRANCH  13  17
ENDBRANCH   9  10
BRANCH   6  20
ATOM     20  C   LIG    1        4.391  -1.121  -0.229  0.00  0.00    +0.424 C 
ATOM     21  F   LIG    1        5.135  -0.927   0.912  0.00  0.00    -0.166 F 
ATOM     22  F   LIG    1        3.924  -2.419  -0.284  0.00  0.00    -0.166 F 
ATOM     23  F   LIG    1        5.128  -0.913  -1.382  0.00  0.00    -0.166 F 
ENDBRANCH   6  20
TORSDOF 5
