REMARK  Name = molecules/VSRBKQFNFZQRBM-ZETCQYMHSA-N.pdb
REMARK                            x       y       z     vdW  Elec       q    Type
REMARK                         _______ _______ _______ _____ _____    ______ ____
ROOT
ATOM      1  C   LIG    1       -0.840  -1.179  -0.326  0.00  0.00    +0.018 C 
ENDROOT
BRANCH   1   2
ATOM      2  C   LIG    1       -2.094  -0.489   0.032  0.00  0.00    +0.048 C 
ATOM      3  C   LIG    1       -2.291   0.901  -0.440  0.00  0.00    +0.023 C 
BRANCH   2   4
ATOM      4  N   LIG    1       -2.392  -0.536   1.459  0.00  0.00    -0.328 NA
ATOM      5  H   LIG    1       -2.165  -1.459   1.881  0.00  0.00    +0.118 HD
ATOM      6  H   LIG    1       -3.426  -0.352   1.578  0.00  0.00    +0.118 HD
ENDBRANCH   2   4
ENDBRANCH   1   2
BRANCH   1   7
ATOM      7  C   LIG    1        0.454  -0.650   0.120  0.00  0.00    +0.001 C 
BRANCH   7   8
ATOM      8  C   LIG    1        0.843   0.728  -0.323  0.00  0.00    -0.000 C 
BRANCH   8  10
ATOM      9  C   LIG    1        3.235   0.017  -0.271  0.00  0.00    +0.004 C 
ATOM     10  C   LIG    1        2.252   1.023   0.247  0.00  0.00    -0.003 C 
ENDBRANCH   8  10
ENDBRANCH   7   8
ENDBRANCH   1   7
TORSDOF 5
