REMARK  Name = molecules/VSWBSWWIRNCQIJ-GJZGRUSLSA-N.pdb
REMARK                            x       y       z     vdW  Elec       q    Type
REMARK                         _______ _______ _______ _____ _____    ______ ____
ROOT
ATOM      1  C   LIG    1        3.972   0.038  -0.507  0.00  0.00    +0.104 C 
ATOM      2  N   LIG    1        2.696  -0.192   0.091  0.00  0.00    -0.304 NA
ATOM      3  C   LIG    1        1.943   1.022   0.344  0.00  0.00    +0.093 C 
ATOM      4  C   LIG    1        0.563   0.479   0.480  0.00  0.00    +0.045 C 
ATOM      5  C   LIG    1       -0.501   1.463   0.624  0.00  0.00    +0.001 A 
ATOM      6  C   LIG    1       -1.843   1.093   0.821  0.00  0.00    +0.132 A 
ATOM      7  C   LIG    1       -2.781   2.095   0.950  0.00  0.00    +0.048 A 
ATOM      8  C   LIG    1       -2.390   3.418   0.884  0.00  0.00    +0.023 A 
ATOM      9  C   LIG    1       -1.054   3.771   0.687  0.00  0.00    +0.041 A 
ATOM     10 CL   LIG    1       -0.633   5.481   0.614  0.00  0.00    -0.084 Cl
ATOM     11  O   LIG    1       -2.390  -0.197   0.910  0.00  0.00    -0.455 OA
ATOM     12  C   LIG    1       -1.808  -1.288   0.230  0.00  0.00    +0.132 A 
ATOM     13  C   LIG    1       -2.715  -2.339   0.345  0.00  0.00    +0.046 A 
ATOM     14  C   LIG    1       -2.393  -3.538  -0.237  0.00  0.00    +0.004 A 
ATOM     15  C   LIG    1       -1.194  -3.661  -0.910  0.00  0.00    +0.001 A 
ATOM     16  C   LIG    1       -0.283  -2.635  -1.036  0.00  0.00    +0.007 A 
ATOM     17  C   LIG    1       -0.621  -1.421  -0.441  0.00  0.00    -0.000 A 
ATOM     18  C   LIG    1       -0.128   2.776   0.560  0.00  0.00    +0.027 A 
ATOM     19  C   LIG    1        0.453  -0.452  -0.674  0.00  0.00    +0.045 C 
ATOM     20  C   LIG    1        1.840  -1.059  -0.699  0.00  0.00    +0.093 C 
ENDROOT
TORSDOF 0
