REMARK  Name = molecules/VTAVFIZOZUAKKE-UHFFFAOYSA-K.pdb
REMARK                            x       y       z     vdW  Elec       q    Type
REMARK                         _______ _______ _______ _____ _____    ______ ____
ROOT
ATOM      1 BR   LIG    1       -1.143   3.134  -0.671  0.00  0.00    +0.000 Br
ATOM      2  C   LIG    1       -0.962   1.278  -0.266  0.00  0.00    +0.000 A 
ATOM      3  C   LIG    1       -2.128   0.636   0.067  0.00  0.00    +0.000 A 
ATOM      4  C   LIG    1       -2.090  -0.694   0.380  0.00  0.00    +0.000 A 
ATOM      5 BR   LIG    1       -3.711  -1.593   0.844  0.00  0.00    +0.000 Br
ATOM      6  C   LIG    1       -0.876  -1.328   0.345  0.00  0.00    +0.000 A 
ATOM      7 BR   LIG    1       -0.914  -3.185   0.809  0.00  0.00    +0.000 Br
ATOM      8  C   LIG    1        0.343  -0.665  -0.002  0.00  0.00    +0.000 A 
ATOM      9  O   LIG    1        1.518  -1.415  -0.003  0.00  0.00    +0.000 OA
ATOM     10 BI   LIG    1        2.838  -0.196  -1.207  0.00  0.00    +0.000 Bi
ATOM     11  O   LIG    1        1.435   1.352  -0.653  0.00  0.00    +0.000 OA
ATOM     12 BR   LIG    1       -3.818   1.544   0.109  0.00  0.00    +0.000 Br
ATOM     13  C   LIG    1        0.304   0.615  -0.303  0.00  0.00    +0.000 A 
ENDROOT
BRANCH  10  14
ATOM     14  O   LIG    1        4.649   0.001  -0.148  0.00  0.00    +0.000 OA
ATOM     15  H   LIG    1        4.555   0.517   0.698  0.00  0.00    +0.000 HD
ENDBRANCH  10  14
TORSDOF 1
