REMARK  Name = molecules/VTHJTEIRLNZDEV-UHFFFAOYSA-L.pdb
REMARK                            x       y       z     vdW  Elec       q    Type
REMARK                         _______ _______ _______ _____ _____    ______ ____
ROOT
ATOM      1 MG   LIG    1       -0.002  -0.403  -0.232  0.00  0.00    +0.000 Mg
ENDROOT
BRANCH   1   2
ATOM      2  O   LIG    1       -1.960  -0.331   0.275  0.00  0.00    +0.000 OA
ATOM      3  H   LIG    1       -2.361   0.526  -0.035  0.00  0.00    +0.000 HD
ENDBRANCH   1   2
BRANCH   1   4
ATOM      4  O   LIG    1        1.971  -0.199  -0.364  0.00  0.00    +0.000 OA
ATOM      5  H   LIG    1        2.351   0.406   0.337  0.00  0.00    +0.000 HD
ENDBRANCH   1   4
TORSDOF 2
