REMARK  Name = molecules/VTUSIVBDOCDNHS-OAHLLOKOSA-N.pdb
REMARK                            x       y       z     vdW  Elec       q    Type
REMARK                         _______ _______ _______ _____ _____    ______ ____
ROOT
ATOM      1  N   LIG    1        1.103   0.026   0.120  0.00  0.00    -0.284 N 
ATOM      2  H   LIG    1        0.560   0.435   0.906  0.00  0.00    +0.155 HD
ATOM      3  C   LIG    1        0.410  -0.782  -0.813  0.00  0.00    +0.234 C 
ATOM      4  O   LIG    1        1.128  -1.278  -1.750  0.00  0.00    -0.274 OA
ENDROOT
BRANCH   1   5
ATOM      5  C   LIG    1        2.487   0.296   0.061  0.00  0.00    +0.039 A 
ATOM      6  C   LIG    1        3.455  -0.505   0.656  0.00  0.00    -0.029 A 
ATOM      7  C   LIG    1        3.007  -1.716   1.386  0.00  0.00    +0.045 C 
ATOM      8  C   LIG    1        4.797  -0.244   0.606  0.00  0.00    +0.005 A 
ATOM      9  C   LIG    1        5.246   0.880  -0.070  0.00  0.00    +0.001 A 
ATOM     10  C   LIG    1        4.319   1.687  -0.666  0.00  0.00    +0.005 A 
ATOM     11  C   LIG    1        2.967   1.401  -0.602  0.00  0.00    -0.029 A 
ATOM     12  C   LIG    1        2.018   2.317  -1.260  0.00  0.00    +0.045 C 
ENDBRANCH   1   5
BRANCH   3  13
ATOM     13  C   LIG    1       -1.020  -1.099  -0.803  0.00  0.00    +0.143 C 
BRANCH  13  14
ATOM     14  C   LIG    1       -1.225  -2.514  -0.390  0.00  0.00    +0.025 C 
ATOM     15  C   LIG    1       -0.715  -2.842   0.989  0.00  0.00    +0.006 C 
ENDBRANCH  13  14
BRANCH  13  16
ATOM     16  N   LIG    1       -1.749  -0.162   0.077  0.00  0.00    -0.292 NA
BRANCH  16  17
ATOM     17  C   LIG    1       -3.056  -0.678   0.324  0.00  0.00    +0.082 C 
ATOM     18  C   LIG    1       -3.960  -0.715  -0.860  0.00  0.00    +0.020 C 
ENDBRANCH  16  17
BRANCH  16  19
ATOM     19  C   LIG    1       -1.700   1.131  -0.473  0.00  0.00    +0.085 C 
BRANCH  19  20
ATOM     20  C   LIG    1       -2.070   2.270   0.387  0.00  0.00    +0.012 C 
ATOM     21  C   LIG    1       -3.446   2.338   0.922  0.00  0.00    +0.005 C 
ENDBRANCH  19  20
ENDBRANCH  16  19
ENDBRANCH  13  16
ENDBRANCH   3  13
TORSDOF 7
