REMARK  Name = molecules/VUFOCTSXHUWGPW-QHCPKHFHSA-N.pdb
REMARK                            x       y       z     vdW  Elec       q    Type
REMARK                         _______ _______ _______ _____ _____    ______ ____
ROOT
ATOM      1  N   LIG    1       -1.848  -0.027   0.190  0.00  0.00    -0.289 NA
ATOM      2  C   LIG    1       -1.332  -1.187   0.888  0.00  0.00    +0.100 C 
ATOM      3  C   LIG    1        0.174  -1.302   0.745  0.00  0.00    +0.100 C 
ATOM      4  N   LIG    1        0.443  -1.625  -0.636  0.00  0.00    -0.298 NA
ATOM      5  C   LIG    1       -0.092  -0.596  -1.464  0.00  0.00    +0.100 C 
ATOM      6  C   LIG    1       -0.915   0.440  -0.780  0.00  0.00    +0.100 C 
ENDROOT
BRANCH   1   7
ATOM      7  C   LIG    1       -3.165  -0.306  -0.308  0.00  0.00    +0.117 C 
BRANCH   7   8
ATOM      8  C   LIG    1       -3.863   0.828  -0.926  0.00  0.00    -0.026 A 
ATOM      9  C   LIG    1       -3.860   2.112  -0.456  0.00  0.00    +0.007 A 
ATOM     10  C   LIG    1       -4.532   3.139  -1.078  0.00  0.00    +0.020 A 
ATOM     11  C   LIG    1       -5.235   2.845  -2.227  0.00  0.00    +0.041 A 
ATOM     12  C   LIG    1       -5.284   1.579  -2.760  0.00  0.00    +0.020 A 
ATOM     13 CL   LIG    1       -6.106   4.147  -3.046  0.00  0.00    -0.084 Cl
ATOM     14  C   LIG    1       -4.591   0.594  -2.090  0.00  0.00    +0.007 A 
ENDBRANCH   7   8
BRANCH   7  15
ATOM     15  C   LIG    1       -4.004  -0.778   0.824  0.00  0.00    -0.026 A 
ATOM     16  C   LIG    1       -3.868  -0.135   2.033  0.00  0.00    +0.005 A 
ATOM     17  C   LIG    1       -4.612  -0.527   3.128  0.00  0.00    +0.000 A 
ATOM     18  C   LIG    1       -5.486  -1.577   2.965  0.00  0.00    +0.000 A 
ATOM     19  C   LIG    1       -5.627  -2.227   1.753  0.00  0.00    +0.000 A 
ATOM     20  C   LIG    1       -4.883  -1.832   0.666  0.00  0.00    +0.005 A 
ENDBRANCH   7  15
ENDBRANCH   1   7
BRANCH   4  21
ATOM     21  C   LIG    1        1.843  -1.901  -0.876  0.00  0.00    +0.112 C 
BRANCH  21  22
ATOM     22  C   LIG    1        2.751  -0.785  -0.460  0.00  0.00    +0.175 C 
BRANCH  22  23
ATOM     23  O   LIG    1        4.063  -1.193  -0.749  0.00  0.00    -0.376 OA
BRANCH  23  24
ATOM     24  C   LIG    1        4.953  -0.132  -0.355  0.00  0.00    +0.188 C 
BRANCH  24  25
ATOM     25  C   LIG    1        6.341  -0.586  -0.661  0.00  0.00    +0.188 C 
BRANCH  25  26
ATOM     26  O   LIG    1        7.347   0.202  -0.418  0.00  0.00    -0.375 OA
BRANCH  26  27
ATOM     27  C   LIG    1        7.874   0.771   0.624  0.00  0.00    +0.187 C 
BRANCH  27  28
ATOM     28  C   LIG    1        7.020   1.772   1.340  0.00  0.00    +0.184 C 
BRANCH  28  29
ATOM     29  O   LIG    1        6.633   2.825   0.522  0.00  0.00    -0.393 OA
ATOM     30  H   LIG    1        7.166   2.864  -0.319  0.00  0.00    +0.209 HD
ENDBRANCH  28  29
ENDBRANCH  27  28
ENDBRANCH  26  27
ENDBRANCH  25  26
ENDBRANCH  24  25
ENDBRANCH  23  24
ENDBRANCH  22  23
ENDBRANCH  21  22
ENDBRANCH   4  21
TORSDOF 12
