REMARK  Name = molecules/VVDLFTOOMLZFRO-UHFFFAOYSA-N.pdb
REMARK                            x       y       z     vdW  Elec       q    Type
REMARK                         _______ _______ _______ _____ _____    ______ ____
ROOT
ATOM      1  C   LIG    1       -2.170  -2.077   0.432  0.00  0.00    +0.045 C 
ATOM      2  C   LIG    1       -2.401  -0.623   0.194  0.00  0.00    -0.033 A 
ATOM      3  C   LIG    1       -3.670  -0.100   0.206  0.00  0.00    +0.096 A 
ATOM      4  C   LIG    1       -3.801   1.253  -0.023  0.00  0.00    +0.337 A 
ATOM      5  O   LIG    1       -4.951   1.771  -0.019  0.00  0.00    -0.245 OA
ATOM      6  O   LIG    1       -2.789   2.048  -0.248  0.00  0.00    -0.422 OA
ATOM      7  C   LIG    1       -1.547   1.596  -0.271  0.00  0.00    +0.143 A 
ATOM      8  C   LIG    1       -0.496   2.458  -0.511  0.00  0.00    +0.096 A 
ATOM      9  C   LIG    1        0.799   1.922  -0.523  0.00  0.00    +0.162 A 
ATOM     10  C   LIG    1        1.022   0.582  -0.304  0.00  0.00    +0.163 A 
ATOM     11  C   LIG    1       -0.048  -0.252  -0.067  0.00  0.00    +0.061 A 
ATOM     12  C   LIG    1       -1.354   0.247  -0.048  0.00  0.00    +0.024 A 
ENDROOT
BRANCH   9  13
ATOM     13  O   LIG    1        1.900   2.728  -0.757  0.00  0.00    -0.503 OA
ATOM     14  H   LIG    1        2.831   2.343  -0.766  0.00  0.00    +0.292 HD
ENDBRANCH   9  13
BRANCH  10  15
ATOM     15  O   LIG    1        2.286   0.074  -0.319  0.00  0.00    -0.477 OA
BRANCH  15  16
ATOM     16  C   LIG    1        2.662  -1.248  -0.116  0.00  0.00    +0.349 C 
BRANCH  16  17
ATOM     17  C   LIG    1        4.139  -1.336  -0.222  0.00  0.00    +0.343 C 
ATOM     18  O   LIG    1        4.706  -2.444  -0.073  0.00  0.00    -0.247 OA
BRANCH  17  19
ATOM     19  O   LIG    1        4.925  -0.227  -0.484  0.00  0.00    -0.478 OA
ATOM     20  H   LIG    1        4.749   0.600   0.067  0.00  0.00    +0.295 HD
ENDBRANCH  17  19
ENDBRANCH  16  17
ENDBRANCH  15  16
ENDBRANCH  10  15
TORSDOF 5
