REMARK  Name = molecules/VVECGOCJFKTUAX-HUYCHCPVSA-N.pdb
REMARK                            x       y       z     vdW  Elec       q    Type
REMARK                         _______ _______ _______ _____ _____    ______ ____
ROOT
ATOM      1  C   LIG    1        0.634   0.264   0.113  0.00  0.00    +0.110 A 
ATOM      2  S   LIG    1        1.728   1.567   0.240  0.00  0.00    -0.067 S 
ATOM      3  C   LIG    1        3.198   0.677   0.108  0.00  0.00    +0.043 A 
ATOM      4  C   LIG    1        4.560   1.009   0.118  0.00  0.00    +0.062 A 
ATOM      5  C   LIG    1        5.521   0.013  -0.015  0.00  0.00    +0.118 A 
ATOM      6  C   LIG    1        5.028  -1.268  -0.151  0.00  0.00    +0.047 A 
ATOM      7  C   LIG    1        3.715  -1.604  -0.163  0.00  0.00    +0.032 A 
ATOM      8  C   LIG    1        2.727  -0.600  -0.029  0.00  0.00    +0.079 A 
ATOM      9  N   LIG    1        1.430  -0.769  -0.022  0.00  0.00    -0.239 NA
ENDROOT
BRANCH   1  13
ATOM     10  F   LIG    1       -3.492   2.769   0.483  0.00  0.00    -0.204 F 
ATOM     11  C   LIG    1       -2.860   1.562   0.332  0.00  0.00    +0.145 A 
ATOM     12  C   LIG    1       -1.483   1.522   0.299  0.00  0.00    +0.050 A 
ATOM     13  C   LIG    1       -0.833   0.299   0.146  0.00  0.00    +0.010 A 
ATOM     14  C   LIG    1       -1.553  -0.846   0.030  0.00  0.00    +0.012 A 
ATOM     15  C   LIG    1       -2.927  -0.786   0.065  0.00  0.00    +0.026 A 
ATOM     16  C   LIG    1       -3.610   0.413   0.216  0.00  0.00    +0.063 A 
BRANCH  16  17
ATOM     17  N   LIG    1       -5.030   0.453   0.249  0.00  0.00    -0.345 N 
ATOM     18  H   LIG    1       -5.500   1.369   0.363  0.00  0.00    +0.146 HD
ATOM     19  C   LIG    1       -5.826  -0.729   0.130  0.00  0.00    +0.125 C 
ENDBRANCH  16  17
ENDBRANCH   1  13
BRANCH   5  20
ATOM     20  O   LIG    1        6.846   0.337  -0.005  0.00  0.00    -0.507 OA
ATOM     21  H   LIG    1        7.157   1.280   0.097  0.00  0.00    +0.292 HD
ENDBRANCH   5  20
TORSDOF 3
