REMARK  Name = molecules/VVFDMWZLBPUKTD-ZFUCPZCZSA-N.pdb
REMARK                            x       y       z     vdW  Elec       q    Type
REMARK                         _______ _______ _______ _____ _____    ______ ____
ROOT
ATOM      1  C   LIG    1       -0.666   0.316   0.000  0.00  0.00    +0.123 C 
ATOM      2  N   LIG    1       -1.456   1.341   0.629  0.00  0.00    -0.249 N 
ATOM      3  C   LIG    1       -1.500   2.579   1.274  0.00  0.00    +0.244 C 
ATOM      4  O   LIG    1       -0.688   3.391   1.739  0.00  0.00    -0.273 OA
ATOM      5  C   LIG    1       -3.027   2.667   1.248  0.00  0.00    +0.191 C 
ATOM      6  C   LIG    1       -2.909   1.251   0.767  0.00  0.00    +0.169 C 
ATOM      7  S   LIG    1       -3.555   1.055  -0.902  0.00  0.00    -0.131 S 
ATOM      8  C   LIG    1       -2.234   0.425  -1.922  0.00  0.00    +0.104 C 
ATOM      9  C   LIG    1       -1.069  -0.131  -1.176  0.00  0.00    -0.021 C 
ENDROOT
BRANCH   5  10
ATOM     10  N   LIG    1       -3.553   3.660   0.511  0.00  0.00    -0.301 N 
ATOM     11  C   LIG    1       -4.081   4.665  -0.241  0.00  0.00    +0.220 C 
ATOM     12  O   LIG    1       -3.690   5.086  -1.333  0.00  0.00    -0.275 OA
ATOM     13  H   LIG    1       -2.647   3.396  -0.486  0.00  0.00    +0.150 HD
BRANCH  11  14
ATOM     14  C   LIG    1       -5.311   5.388   0.317  0.00  0.00    +0.151 C 
BRANCH  14  15
ATOM     15  C   LIG    1       -5.812   6.417  -0.668  0.00  0.00    +0.059 A 
ATOM     16  C   LIG    1       -4.999   7.433  -1.083  0.00  0.00    +0.072 A 
ATOM     17  S   LIG    1       -6.051   8.280  -2.167  0.00  0.00    -0.061 S 
ATOM     18  C   LIG    1       -7.433   7.280  -2.006  0.00  0.00    +0.156 A 
ATOM     19  N   LIG    1       -7.019   6.366  -1.145  0.00  0.00    -0.230 NA
BRANCH  18  20
ATOM     20  N   LIG    1       -8.748   7.374  -2.620  0.00  0.00    -0.338 N 
ATOM     21  H   LIG    1       -9.486   7.804  -1.989  0.00  0.00    +0.144 HD
ATOM     22  H   LIG    1       -8.902   7.044  -3.580  0.00  0.00    +0.144 HD
ENDBRANCH  18  20
ENDBRANCH  14  15
ENDBRANCH  11  14
ENDBRANCH   5  10
BRANCH   1  23
ATOM     23  C   LIG    1        0.477  -0.184   0.723  0.00  0.00    +0.357 C 
ATOM     24  O   LIG    1        0.758   0.300   1.895  0.00  0.00    -0.243 OA
BRANCH  23  25
ATOM     25  O   LIG    1        1.380  -1.152   0.355  0.00  0.00    -0.420 OA
BRANCH  25  26
ATOM     26  C   LIG    1        2.470  -1.559   1.152  0.00  0.00    +0.371 C 
ATOM     27  C   LIG    1        2.465  -2.995   1.550  0.00  0.00    +0.101 C 
BRANCH  26  28
ATOM     28  O   LIG    1        3.650  -1.266   0.424  0.00  0.00    -0.394 OA
BRANCH  28  29
ATOM     29  C   LIG    1        4.587  -0.370   0.853  0.00  0.00    +0.513 C 
ATOM     30  O   LIG    1        4.373   0.220   1.965  0.00  0.00    -0.203 OA
BRANCH  29  31
ATOM     31  O   LIG    1        5.761  -0.025   0.203  0.00  0.00    -0.430 OA
BRANCH  31  32
ATOM     32  C   LIG    1        6.601   0.911   0.795  0.00  0.00    +0.180 C 
ATOM     33  C   LIG    1        7.927   0.229   1.100  0.00  0.00    +0.045 C 
ATOM     34  C   LIG    1        8.932   0.426   0.009  0.00  0.00    +0.004 C 
ATOM     35  C   LIG    1        8.315   0.554  -1.354  0.00  0.00    +0.000 C 
ATOM     36  C   LIG    1        7.243   1.615  -1.445  0.00  0.00    +0.004 C 
ATOM     37  C   LIG    1        6.929   2.098  -0.072  0.00  0.00    +0.045 C 
ENDBRANCH  31  32
ENDBRANCH  29  31
ENDBRANCH  28  29
ENDBRANCH  26  28
ENDBRANCH  25  26
ENDBRANCH  23  25
ENDBRANCH   1  23
BRANCH   9  38
ATOM     38  C   LIG    1       -0.330  -1.232  -1.828  0.00  0.00    +0.111 C 
BRANCH  38  39
ATOM     39  S   LIG    1       -1.444  -2.654  -2.124  0.00  0.00    -0.080 S 
BRANCH  39  40
ATOM     40  C   LIG    1       -2.554  -2.877  -0.768  0.00  0.00    +0.210 A 
ATOM     41  N   LIG    1       -2.405  -3.531   0.380  0.00  0.00    -0.219 N 
ATOM     42  N   LIG    1       -3.595  -3.409   1.028  0.00  0.00    -0.043 NA
ATOM     43  N   LIG    1       -4.423  -2.706   0.288  0.00  0.00    -0.022 NA
ATOM     44  N   LIG    1       -3.830  -2.357  -0.822  0.00  0.00    -0.102 NA
BRANCH  41  45
ATOM     45  C   LIG    1       -1.277  -4.200   0.948  0.00  0.00    +0.163 C 
BRANCH  45  46
ATOM     46  C   LIG    1       -1.083  -5.640   0.627  0.00  0.00    +0.107 C 
BRANCH  46  47
ATOM     47  N   LIG    1       -2.190  -6.431   1.038  0.00  0.00    -0.307 NA
ATOM     48  C   LIG    1       -1.876  -7.744   1.490  0.00  0.00    +0.104 C 
ATOM     49  C   LIG    1       -3.387  -6.301   0.296  0.00  0.00    +0.104 C 
ENDBRANCH  46  47
ENDBRANCH  45  46
ENDBRANCH  41  45
ENDBRANCH  39  40
ENDBRANCH  38  39
ENDBRANCH   9  38
TORSDOF 17
