REMARK  Name = molecules/VVIAGPKUTFNRDU-STQMWFEESA-N.pdb
REMARK                            x       y       z     vdW  Elec       q    Type
REMARK                         _______ _______ _______ _____ _____    ______ ____
ROOT
ATOM      1  N   UNK A  0        2.198  -0.052  -1.431  0.00  0.00    -0.342 N 
ATOM      2  H   UNK A  0        2.561   0.720  -2.072  0.00  0.00    +0.146 HD
ENDROOT
BRANCH   1   3
ATOM      3  C   UNK A  0        0.802  -0.077  -1.175  0.00  0.00    +0.027 A 
ATOM      4  C   UNK A  0        0.207  -1.151  -0.543  0.00  0.00    +0.023 A 
ATOM      5  C   UNK A  0       -1.181  -1.132  -0.328  0.00  0.00    +0.015 A 
ATOM      6  C   UNK A  0       -1.976  -0.092  -0.718  0.00  0.00    +0.037 A 
ATOM      7  C   UNK A  0       -1.360   0.986  -1.354  0.00  0.00    +0.015 A 
ATOM      8  C   UNK A  0        0.013   0.978  -1.573  0.00  0.00    +0.023 A 
BRANCH   6   9
ATOM      9  C   UNK A  0       -3.435  -0.046  -0.507  0.00  0.00    +0.245 C 
ATOM     10  N   GLU A  1       -4.101  -1.052   0.208  0.00  0.00    -0.298 N 
ATOM     11  H   GLU A  1       -3.564  -1.865   0.608  0.00  0.00    +0.150 HD
ATOM     12  O   UNK A  0       -4.106   0.917  -0.978  0.00  0.00    -0.270 OA
BRANCH  10  13
ATOM     13  CA  GLU A  1       -5.546  -0.993   0.412  0.00  0.00    +0.182 C 
BRANCH  13  14
ATOM     14  C   GLU A  1       -6.228  -1.175  -0.846  0.00  0.00    +0.325 C 
ATOM     15  O   GLU A  1       -5.685  -0.897  -1.934  0.00  0.00    -0.249 OA
BRANCH  14  16
ATOM     16  OXT GLU A  1       -7.540  -1.689  -0.846  0.00  0.00    -0.479 OA
ATOM     17  HXT GLU A  1       -7.829  -2.267  -1.643  0.00  0.00    +0.295 HD
ENDBRANCH  14  16
ENDBRANCH  13  14
BRANCH  13  18
ATOM     18  CB  GLU A  1       -5.929   0.211   1.197  0.00  0.00    +0.045 C 
BRANCH  18  19
ATOM     19  CG  GLU A  1       -7.388   0.370   1.401  0.00  0.00    +0.123 C 
BRANCH  19  20
ATOM     20  CD  GLU A  1       -8.146   0.724   0.209  0.00  0.00    +0.305 C 
ATOM     21  OE1 GLU A  1       -7.605   1.207  -0.832  0.00  0.00    -0.251 OA
BRANCH  20  22
ATOM     22  OE2 GLU A  1       -9.533   0.549   0.140  0.00  0.00    -0.481 OA
ATOM     23  HE2 GLU A  1      -10.098   1.164  -0.404  0.00  0.00    +0.295 HD
ENDBRANCH  20  22
ENDBRANCH  19  20
ENDBRANCH  18  19
ENDBRANCH  13  18
ENDBRANCH  10  13
ENDBRANCH   6   9
ENDBRANCH   1   3
BRANCH   1  24
ATOM     24  C   UNK A  0        3.163  -0.972  -0.904  0.00  0.00    +0.126 C 
BRANCH  24  28
ATOM     25  C   UNK A  0        3.158   1.218   1.960  0.00  0.00    +0.333 C 
ATOM     26  O   UNK A  0        3.498   2.271   2.521  0.00  0.00    -0.279 OA
ATOM     27  N   UNK A  0        3.819   0.458   1.002  0.00  0.00    -0.261 N 
ATOM     28  C   UNK A  0        3.357  -0.870   0.594  0.00  0.00    +0.115 C 
ATOM     29  C   UNK A  0        4.484  -1.851   0.956  0.00  0.00    +0.127 C 
ATOM     30  N   UNK A  0        5.677  -1.455   0.278  0.00  0.00    -0.327 N 
ATOM     31  C   UNK A  0        5.962  -0.088   0.026  0.00  0.00    +0.126 A 
ATOM     32  N   UNK A  0        7.116   0.300  -0.561  0.00  0.00    -0.315 N 
ATOM     33  C   UNK A  0        7.351   1.596  -0.790  0.00  0.00    +0.195 A 
ATOM     34  N   UNK A  0        6.442   2.540  -0.441  0.00  0.00    -0.176 NA
ATOM     35  C   UNK A  0        5.285   2.196   0.145  0.00  0.00    +0.298 A 
ATOM     36  O   UNK A  0        4.419   3.060   0.476  0.00  0.00    -0.264 OA
ATOM     37  H   UNK A  0        7.805  -0.465  -0.823  0.00  0.00    +0.170 HD
ATOM     38  H   UNK A  0        6.402  -2.148  -0.068  0.00  0.00    +0.148 HD
ATOM     39  C   UNK A  0        5.019   0.888   0.392  0.00  0.00    +0.142 A 
BRANCH  33  40
ATOM     40  N   UNK A  0        8.583   1.989  -1.414  0.00  0.00    -0.329 N 
ATOM     41  H   UNK A  0        9.477   1.534  -1.179  0.00  0.00    +0.145 HD
ATOM     42  H   UNK A  0        8.539   2.753  -2.116  0.00  0.00    +0.145 HD
ENDBRANCH  33  40
ENDBRANCH  24  28
ENDBRANCH   1  24
TORSDOF 12
