REMARK  Name = molecules/VVUYEFBRTFASAH-UHFFFAOYSA-N.pdb
REMARK                            x       y       z     vdW  Elec       q    Type
REMARK                         _______ _______ _______ _____ _____    ______ ____
ROOT
ATOM      1  N   LIG    1       -0.535  -0.409   0.131  0.00  0.00    -0.321 N 
ATOM      2  C   LIG    1       -1.110   0.380   1.017  0.00  0.00    +0.117 A 
ATOM      3  N   LIG    1       -1.946  -0.387   1.785  0.00  0.00    -0.214 NA
ATOM      4  C   LIG    1       -1.866  -1.653   1.345  0.00  0.00    +0.168 A 
ATOM      5  N   LIG    1       -2.458  -2.773   1.733  0.00  0.00    -0.280 N 
ATOM      6  C   LIG    1       -3.384  -2.738   2.823  0.00  0.00    +0.155 C 
ATOM      7  C   LIG    1       -2.194  -3.929   1.112  0.00  0.00    +0.333 A 
ATOM      8  O   LIG    1       -2.754  -5.018   1.470  0.00  0.00    -0.246 OA
ATOM      9  N   LIG    1       -1.338  -4.036   0.082  0.00  0.00    -0.262 N 
ATOM     10  C   LIG    1       -0.725  -2.904  -0.327  0.00  0.00    +0.282 A 
ATOM     11  O   LIG    1        0.085  -2.951  -1.286  0.00  0.00    -0.265 OA
ATOM     12  C   LIG    1       -1.068  -5.317  -0.580  0.00  0.00    +0.157 C 
ATOM     13  C   LIG    1       -0.963  -1.690   0.280  0.00  0.00    +0.152 A 
ENDROOT
BRANCH   1  14
ATOM     14  C   LIG    1        0.438  -0.073  -0.901  0.00  0.00    +0.139 C 
BRANCH  14  15
ATOM     15  C   LIG    1        1.791  -0.233  -0.273  0.00  0.00    +0.106 C 
BRANCH  15  16
ATOM     16  N   LIG    1        2.903   0.046  -1.149  0.00  0.00    -0.299 NA
BRANCH  16  17
ATOM     17  C   LIG    1        2.826   1.321  -1.770  0.00  0.00    +0.081 C 
ATOM     18  C   LIG    1        2.984   2.478  -0.817  0.00  0.00    +0.020 C 
ENDBRANCH  16  17
BRANCH  16  19
ATOM     19  C   LIG    1        4.096  -0.171  -0.371  0.00  0.00    +0.112 C 
BRANCH  19  20
ATOM     20  C   LIG    1        5.363   0.072  -1.138  0.00  0.00    +0.171 C 
BRANCH  20  21
ATOM     21  O   LIG    1        5.508  -0.731  -2.240  0.00  0.00    -0.394 OA
ATOM     22  H   LIG    1        6.294  -0.412  -2.750  0.00  0.00    +0.209 HD
ENDBRANCH  20  21
ENDBRANCH  19  20
ENDBRANCH  16  19
ENDBRANCH  15  16
ENDBRANCH  14  15
ENDBRANCH   1  14
BRANCH   2  23
ATOM     23  C   LIG    1       -0.901   1.843   1.155  0.00  0.00    +0.109 C 
BRANCH  23  24
ATOM     24  C   LIG    1       -1.963   2.664   0.559  0.00  0.00    -0.040 A 
ATOM     25  C   LIG    1       -3.112   2.985   1.295  0.00  0.00    +0.004 A 
ATOM     26  C   LIG    1       -4.121   3.753   0.779  0.00  0.00    +0.000 A 
ATOM     27  C   LIG    1       -4.048   4.249  -0.502  0.00  0.00    +0.000 A 
ATOM     28  C   LIG    1       -2.935   3.952  -1.248  0.00  0.00    +0.000 A 
ATOM     29  C   LIG    1       -1.909   3.169  -0.717  0.00  0.00    +0.004 A 
ENDBRANCH  23  24
ENDBRANCH   2  23
TORSDOF 9
