REMARK  Name = molecules/VWEMSUCCUQSLME-NRFANRHFSA-N.pdb
REMARK                            x       y       z     vdW  Elec       q    Type
REMARK                         _______ _______ _______ _____ _____    ______ ____
ROOT
ATOM      1  C   LIG    1        0.367  -0.275  -0.857  0.00  0.00    +0.173 C 
ENDROOT
BRANCH   1   2
ATOM      2  C   LIG    1       -0.101  -1.562  -1.400  0.00  0.00    -0.023 A 
ATOM      3  C   LIG    1        0.548  -2.713  -1.032  0.00  0.00    +0.005 A 
ATOM      4  C   LIG    1        0.162  -3.973  -1.512  0.00  0.00    +0.000 A 
ATOM      5  C   LIG    1       -0.892  -4.074  -2.377  0.00  0.00    +0.000 A 
ATOM      6  C   LIG    1       -1.545  -2.922  -2.750  0.00  0.00    +0.000 A 
ATOM      7  C   LIG    1       -1.145  -1.703  -2.264  0.00  0.00    +0.005 A 
ENDBRANCH   1   2
BRANCH   1   8
ATOM      8  S   LIG    1       -0.661   1.100  -1.078  0.00  0.00    +0.004 S 
ATOM      9  O   LIG    1        0.223   2.309  -0.725  0.00  0.00    -0.169 OA
ATOM     10  O   LIG    1       -1.002   1.365  -2.531  0.00  0.00    -0.169 OA
BRANCH   8  11
ATOM     11  C   LIG    1       -2.063   1.212  -0.066  0.00  0.00    +0.089 A 
ATOM     12  C   LIG    1       -2.125   2.142   0.993  0.00  0.00    +0.029 A 
ATOM     13  C   LIG    1       -3.206   2.245   1.831  0.00  0.00    +0.024 A 
ATOM     14  C   LIG    1       -4.300   1.428   1.670  0.00  0.00    +0.025 A 
ATOM     15  C   LIG    1       -4.265   0.518   0.650  0.00  0.00    +0.024 A 
ATOM     16  C   LIG    1       -3.158   0.415  -0.206  0.00  0.00    +0.029 A 
BRANCH  14  17
ATOM     17  N   LIG    1       -5.438   1.510   2.534  0.00  0.00    -0.358 N 
ATOM     18  H   LIG    1       -5.261   1.746   3.527  0.00  0.00    +0.142 HD
ATOM     19  H   LIG    1       -6.413   1.350   2.227  0.00  0.00    +0.142 HD
ENDBRANCH  14  17
ENDBRANCH   8  11
ENDBRANCH   1   8
BRANCH   1  20
ATOM     20  C   LIG    1        0.793  -0.410   0.565  0.00  0.00    +0.111 C 
BRANCH  20  21
ATOM     21  C   LIG    1        1.567   0.754   1.081  0.00  0.00    +0.165 C 
ATOM     22  O   LIG    1        1.005   1.659   1.718  0.00  0.00    -0.292 OA
BRANCH  21  23
ATOM     23  C   LIG    1        3.004   0.846   0.844  0.00  0.00    +0.017 A 
ATOM     24  C   LIG    1        3.669   1.956   1.326  0.00  0.00    +0.011 A 
ATOM     25  C   LIG    1        5.023   2.061   1.106  0.00  0.00    +0.001 A 
ATOM     26  C   LIG    1        5.725   1.098   0.425  0.00  0.00    +0.000 A 
ATOM     27  C   LIG    1        5.045   0.001  -0.047  0.00  0.00    +0.001 A 
ATOM     28  C   LIG    1        3.689  -0.139   0.153  0.00  0.00    +0.011 A 
ENDBRANCH  21  23
ENDBRANCH  20  21
ENDBRANCH   1  20
TORSDOF 7
