REMARK  Name = molecules/VWLHWLSRQJQWRG-UHFFFAOYSA-O.pdb
REMARK                            x       y       z     vdW  Elec       q    Type
REMARK                         _______ _______ _______ _____ _____    ______ ____
ROOT
ATOM      1  C   LIG    1        0.574  -0.326   0.046  0.00  0.00    +0.019 A 
ATOM      2  C   LIG    1        1.141  -1.392   0.710  0.00  0.00    +0.022 A 
ATOM      3  C   LIG    1        2.531  -1.422   0.871  0.00  0.00    +0.005 A 
ATOM      4  C   LIG    1        3.293  -0.394   0.368  0.00  0.00    +0.045 A 
ATOM      5  C   LIG    1        2.711   0.661  -0.290  0.00  0.00    +0.119 A 
ATOM      6  C   LIG    1        1.332   0.709  -0.462  0.00  0.00    +0.067 A 
ENDROOT
BRANCH   1   7
ATOM      7  N   LIG    1       -0.854  -0.243  -0.150  0.00  0.00    -0.387 NA
ATOM      8  C   LIG    1       -1.442  -1.543   0.012  0.00  0.00    +0.109 C 
ATOM      9  C   LIG    1       -1.049   0.275  -1.497  0.00  0.00    +0.109 C 
BRANCH   7  11
ATOM     10  C   LIG    1       -2.786   1.060   0.632  0.00  0.00    +0.023 C 
ATOM     11  C   LIG    1       -1.338   0.703   0.821  0.00  0.00    +0.084 C 
ENDBRANCH   7  11
ENDBRANCH   1   7
BRANCH   5  12
ATOM     12  O   LIG    1        3.510   1.697  -0.794  0.00  0.00    -0.507 OA
ATOM     13  H   LIG    1        3.113   2.473  -1.276  0.00  0.00    +0.292 HD
ENDBRANCH   5  12
TORSDOF 3
