REMARK  Name = molecules/VWQZJJZGISNFOE-UHFFFAOYSA-N.pdb
REMARK                            x       y       z     vdW  Elec       q    Type
REMARK                         _______ _______ _______ _____ _____    ______ ____
ROOT
ATOM      1  C   LIG    1        0.765  -0.676  -0.407  0.00  0.00    +0.035 A 
ATOM      2  C   LIG    1       -0.279   0.097   0.079  0.00  0.00    +0.035 A 
ATOM      3  C   LIG    1       -1.488  -0.435   0.498  0.00  0.00    +0.022 A 
ATOM      4  C   LIG    1       -1.623  -1.802   0.415  0.00  0.00    +0.012 A 
ATOM      5  C   LIG    1       -0.608  -2.606  -0.062  0.00  0.00    +0.002 A 
ATOM      6  C   LIG    1        0.578  -2.062  -0.471  0.00  0.00    +0.023 A 
ENDROOT
BRANCH   3   7
ATOM      7  C   LIG    1       -2.548   0.430   0.999  0.00  0.00    +0.179 A 
ATOM      8  N   LIG    1       -3.753   0.013   1.428  0.00  0.00    -0.239 N 
ATOM      9  N   LIG    1       -4.465   1.067   1.812  0.00  0.00    -0.046 NA
ATOM     10  N   LIG    1       -3.737   2.156   1.636  0.00  0.00    -0.023 NA
ATOM     11  H   LIG    1       -4.088  -0.977   1.461  0.00  0.00    +0.192 HD
ATOM     12  N   LIG    1       -2.578   1.762   1.143  0.00  0.00    -0.108 NA
ENDBRANCH   3   7
BRANCH   1  13
ATOM     13  N   LIG    1        1.989  -0.155  -0.833  0.00  0.00    -0.276 N 
ATOM     14  C   LIG    1        2.409   1.195  -0.863  0.00  0.00    +0.325 C 
ATOM     15  O   LIG    1        1.671   2.125  -0.482  0.00  0.00    -0.263 OA
ATOM     16  H   LIG    1        2.711  -0.876  -1.188  0.00  0.00    +0.155 HD
BRANCH  14  17
ATOM     17  C   LIG    1        3.761   1.556  -1.356  0.00  0.00    +0.393 C 
ATOM     18  O   LIG    1        4.509   0.634  -1.740  0.00  0.00    -0.240 OA
BRANCH  17  19
ATOM     19  O   LIG    1        4.189   2.863  -1.393  0.00  0.00    -0.474 OA
ATOM     20  H   LIG    1        4.816   3.160  -0.646  0.00  0.00    +0.296 HD
ENDBRANCH  17  19
ENDBRANCH  14  17
ENDBRANCH   1  13
TORSDOF 4
