REMARK  Name = molecules/VWVKUNOPTJGDOB-BDHVOXNPSA-N.pdb
REMARK                            x       y       z     vdW  Elec       q    Type
REMARK                         _______ _______ _______ _____ _____    ______ ____
ROOT
ATOM      1  C   LIG    1       -0.062  -2.755   1.704  0.00  0.00    +0.006 A 
ATOM      2  C   LIG    1       -1.095  -1.908   1.376  0.00  0.00    -0.013 A 
ATOM      3  C   LIG    1       -2.303  -1.510   2.123  0.00  0.00    +0.199 C 
ATOM      4  O   LIG    1       -3.151  -1.065   1.137  0.00  0.00    -0.338 OA
ATOM      5  C   LIG    1       -2.372  -0.439   0.166  0.00  0.00    +0.227 C 
ATOM      6  C   LIG    1       -2.156   0.995   0.590  0.00  0.00    +0.209 C 
ATOM      7  C   LIG    1       -3.527   1.551   0.907  0.00  0.00    +0.179 C 
ATOM      8  C   LIG    1       -4.592   0.963   0.041  0.00  0.00    +0.177 C 
ATOM      9  C   LIG    1       -4.103   0.292  -1.190  0.00  0.00    +0.178 C 
ATOM     10  O   LIG    1       -2.957  -0.431  -1.070  0.00  0.00    -0.334 OA
ATOM     11  C   LIG    1       -1.153  -1.238   0.172  0.00  0.00    +0.019 A 
ATOM     12  C   LIG    1       -0.115  -1.458  -0.702  0.00  0.00    +0.013 A 
ATOM     13  C   LIG    1        0.940  -2.312  -0.389  0.00  0.00    -0.043 A 
ATOM     14  C   LIG    1        0.982  -2.964   0.802  0.00  0.00    +0.004 A 
ENDROOT
BRANCH   6  15
ATOM     15  O   LIG    1       -1.281   1.102   1.661  0.00  0.00    -0.383 OA
ATOM     16  H   LIG    1       -1.469   1.958   2.162  0.00  0.00    +0.210 HD
ENDBRANCH   6  15
BRANCH   7  17
ATOM     17  O   LIG    1       -3.440   2.937   0.784  0.00  0.00    -0.386 OA
ATOM     18  H   LIG    1       -4.347   3.299   0.948  0.00  0.00    +0.210 HD
ENDBRANCH   7  17
BRANCH   8  19
ATOM     19  O   LIG    1       -5.471   0.133   0.776  0.00  0.00    -0.386 OA
ATOM     20  H   LIG    1       -5.887  -0.490   0.137  0.00  0.00    +0.210 HD
ENDBRANCH   8  19
BRANCH   9  21
ATOM     21  C   LIG    1       -4.022   1.332  -2.315  0.00  0.00    +0.190 C 
BRANCH  21  22
ATOM     22  O   LIG    1       -5.263   1.994  -2.319  0.00  0.00    -0.392 OA
ATOM     23  H   LIG    1       -5.194   2.938  -2.539  0.00  0.00    +0.210 HD
ENDBRANCH  21  22
ENDBRANCH   9  21
BRANCH  13  24
ATOM     24  C   LIG    1        2.055  -2.533  -1.357  0.00  0.00    +0.070 C 
BRANCH  24  25
ATOM     25  C   LIG    1        3.090  -1.488  -1.048  0.00  0.00    -0.043 A 
ATOM     26  C   LIG    1        4.092  -1.746  -0.135  0.00  0.00    +0.004 A 
ATOM     27  C   LIG    1        5.036  -0.790   0.146  0.00  0.00    +0.004 A 
ATOM     28  C   LIG    1        4.995   0.448  -0.485  0.00  0.00    -0.048 A 
ATOM     29  C   LIG    1        3.985   0.685  -1.395  0.00  0.00    +0.004 A 
ATOM     30  C   LIG    1        3.037  -0.268  -1.680  0.00  0.00    +0.004 A 
BRANCH  28  31
ATOM     31  C   LIG    1        6.030   1.475  -0.168  0.00  0.00    +0.032 C 
ATOM     32  C   LIG    1        5.591   2.350   0.985  0.00  0.00    +0.009 C 
ENDBRANCH  28  31
ENDBRANCH  24  25
ENDBRANCH  13  24
TORSDOF 8
