REMARK  Name = molecules/VWVSBHGCDBMOOT-IIEHVVJPSA-N.pdb
REMARK                            x       y       z     vdW  Elec       q    Type
REMARK                         _______ _______ _______ _____ _____    ______ ____
ROOT
ATOM      1  F   LIG    1       -1.140   0.983  -1.163  0.00  0.00    -0.238 F 
ATOM      2  C   LIG    1       -1.339   0.373   0.081  0.00  0.00    +0.153 C 
ATOM      3  C   LIG    1       -0.660   1.224   1.095  0.00  0.00    +0.153 C 
ATOM      4  C   LIG    1        0.792   1.485   0.645  0.00  0.00    +0.042 C 
ATOM      5  C   LIG    1        1.506   0.200   0.528  0.00  0.00    -0.017 C 
ATOM      6  C   LIG    1        1.738  -0.489   1.859  0.00  0.00    +0.012 C 
ATOM      7  C   LIG    1        2.821   0.208  -0.204  0.00  0.00    +0.067 C 
ATOM      8  C   LIG    1        3.017  -1.285  -0.449  0.00  0.00    -0.003 C 
ATOM      9  C   LIG    1        1.631  -1.869  -0.567  0.00  0.00    +0.008 C 
ATOM     10  C   LIG    1        3.824  -1.496  -1.718  0.00  0.00    +0.008 C 
ATOM     11  C   LIG    1        0.752  -0.690  -0.437  0.00  0.00    +0.002 C 
ATOM     12  C   LIG    1       -2.824   0.249   0.255  0.00  0.00    +0.044 C 
ATOM     13  C   LIG    1       -3.182  -0.580   1.488  0.00  0.00    +0.023 C 
ATOM     14  C   LIG    1       -3.448   1.544   0.442  0.00  0.00    -0.009 C 
ATOM     15  C   LIG    1       -4.398   2.017  -0.328  0.00  0.00    +0.047 C 
ATOM     16  C   LIG    1       -4.908   1.263  -1.461  0.00  0.00    +0.179 C 
ATOM     17  C   LIG    1       -4.288  -0.040  -1.671  0.00  0.00    +0.051 C 
ATOM     18  O   LIG    1       -5.812   1.716  -2.188  0.00  0.00    -0.288 OA
ATOM     19  C   LIG    1       -3.344  -0.492  -0.894  0.00  0.00    -0.053 C 
ATOM     20  C   LIG    1       -2.745  -1.827  -1.250  0.00  0.00    +0.032 C 
ATOM     21  C   LIG    1       -1.244  -1.751  -1.215  0.00  0.00    +0.011 C 
ATOM     22  C   LIG    1       -0.667  -0.992  -0.048  0.00  0.00    +0.034 C 
ENDROOT
BRANCH   3  23
ATOM     23  O   LIG    1       -0.672   0.766   2.382  0.00  0.00    -0.389 OA
ATOM     24  H   LIG    1       -0.797  -0.208   2.388  0.00  0.00    +0.210 HD
ENDBRANCH   3  23
BRANCH   7  25
ATOM     25  C   LIG    1        3.947   0.847   0.401  0.00  0.00    +0.162 C 
ATOM     26  O   LIG    1        4.865   0.136   0.843  0.00  0.00    -0.295 OA
BRANCH  25  27
ATOM     27  C   LIG    1        4.110   2.288   0.552  0.00  0.00    +0.230 C 
BRANCH  27  28
ATOM     28  O   LIG    1        3.184   2.971  -0.211  0.00  0.00    -0.388 OA
ATOM     29  H   LIG    1        3.390   2.965  -1.175  0.00  0.00    +0.210 HD
ENDBRANCH  27  28
ENDBRANCH  25  27
ENDBRANCH   7  25
TORSDOF 4
