REMARK  Name = molecules/VWYQKFLLGRBICZ-UHFFFAOYSA-N.pdb
REMARK                            x       y       z     vdW  Elec       q    Type
REMARK                         _______ _______ _______ _____ _____    ______ ____
ROOT
ATOM      1  N   LIG    1       -1.469   0.772  -0.598  0.00  0.00    -0.283 N 
ATOM      2  C   LIG    1       -0.398   0.362   0.239  0.00  0.00    +0.231 C 
ATOM      3  O   LIG    1       -0.563  -0.543   1.086  0.00  0.00    -0.274 OA
ATOM      4  H   LIG    1       -1.334   1.516  -1.296  0.00  0.00    +0.155 HD
ENDROOT
BRANCH   1   5
ATOM      5  C   LIG    1       -2.739   0.147  -0.470  0.00  0.00    +0.055 A 
ATOM      6  C   LIG    1       -3.620   0.723   0.441  0.00  0.00    -0.028 A 
ATOM      7  C   LIG    1       -3.218   1.924   1.222  0.00  0.00    +0.046 C 
ATOM      8  C   LIG    1       -4.856   0.134   0.581  0.00  0.00    +0.005 A 
ATOM      9  C   LIG    1       -5.220  -0.985  -0.149  0.00  0.00    +0.002 A 
ATOM     10  C   LIG    1       -4.351  -1.558  -1.053  0.00  0.00    +0.022 A 
ATOM     11  C   LIG    1       -3.112  -0.972  -1.196  0.00  0.00    +0.062 A 
ATOM     12 CL   LIG    1       -1.962  -1.668  -2.342  0.00  0.00    -0.082 Cl
ENDBRANCH   1   5
BRANCH   2  13
ATOM     13  C   LIG    1        0.916   1.011   0.107  0.00  0.00    +0.177 C 
BRANCH  13  14
ATOM     14  N   LIG    1        1.885   0.493   1.009  0.00  0.00    -0.308 NA
ATOM     15  H   LIG    1        2.587   1.148   1.352  0.00  0.00    +0.122 HD
BRANCH  14  16
ATOM     16  C   LIG    1        2.330  -0.837   0.777  0.00  0.00    +0.081 C 
BRANCH  16  17
ATOM     17  C   LIG    1        3.155  -0.989  -0.488  0.00  0.00    +0.015 C 
BRANCH  17  18
ATOM     18  C   LIG    1        4.398  -0.120  -0.436  0.00  0.00    -0.002 C 
ATOM     19  C   LIG    1        5.248  -0.516   0.739  0.00  0.00    +0.004 C 
ENDBRANCH  17  18
ENDBRANCH  16  17
ENDBRANCH  14  16
ENDBRANCH  13  14
ENDBRANCH   2  13
TORSDOF 6
