REMARK  Name = molecules/VXFJYXUZANRPDJ-WTNASJBWSA-N.pdb
REMARK                            x       y       z     vdW  Elec       q    Type
REMARK                         _______ _______ _______ _____ _____    ______ ____
ROOT
ATOM      1  CA  ALA A  1       -0.337   1.059   1.192  0.00  0.00    +0.138 C 
ATOM      2  CB  ALA A  1        0.176   2.252   0.422  0.00  0.00    +0.034 C 
ENDROOT
BRANCH   1   3
ATOM      3  C   ALA A  1       -1.298   0.220   0.434  0.00  0.00    +0.233 C 
ATOM      4  O   ALA A  1       -1.077  -1.047   0.477  0.00  0.00    -0.274 OA
ATOM      5  N   UNK A  2       -2.402   0.678  -0.307  0.00  0.00    -0.283 N 
ATOM      6  C   UNK A  2       -2.864   2.032  -0.459  0.00  0.00    +0.185 C 
ATOM      7  C   UNK A  2       -3.949   1.968  -1.569  0.00  0.00    +0.039 C 
ATOM      8  C   UNK A  2       -4.563   0.628  -1.200  0.00  0.00    +0.012 C 
ATOM      9  C   UNK A  2       -5.353   0.011  -2.305  0.00  0.00    +0.005 C 
ATOM     10  C   UNK A  2       -5.617  -1.419  -1.944  0.00  0.00    +0.000 C 
ATOM     11  C   UNK A  2       -5.062  -1.838  -0.626  0.00  0.00    +0.002 C 
ATOM     12  C   UNK A  2       -3.633  -1.471  -0.391  0.00  0.00    +0.023 C 
ATOM     13  C   UNK A  2       -3.293  -0.190  -1.052  0.00  0.00    +0.080 C 
BRANCH   6  14
ATOM     14  C   UNK A  2       -3.545   2.486   0.782  0.00  0.00    +0.325 C 
ATOM     15  O   UNK A  2       -3.965   3.658   0.900  0.00  0.00    -0.249 OA
BRANCH  14  16
ATOM     16  O   UNK A  2       -3.716   1.594   1.820  0.00  0.00    -0.479 OA
ATOM     17  H   UNK A  2       -3.304   1.847   2.705  0.00  0.00    +0.295 HD
ENDBRANCH  14  16
ENDBRANCH   6  14
ENDBRANCH   1   3
BRANCH   1  18
ATOM     18  N   ALA A  1        0.623   0.283   1.835  0.00  0.00    -0.294 NA
ATOM     19  H   ALA A  1        0.775   0.385   2.834  0.00  0.00    +0.123 HD
BRANCH  18  20
ATOM     20  C   UNK A  0        1.536  -0.557   1.203  0.00  0.00    +0.164 C 
BRANCH  20  21
ATOM     21  C   UNK A  0        2.360  -1.194   2.305  0.00  0.00    +0.324 C 
ATOM     22  O   UNK A  0        2.171  -0.801   3.495  0.00  0.00    -0.249 OA
BRANCH  21  23
ATOM     23  O   UNK A  0        3.292  -2.166   2.119  0.00  0.00    -0.464 OA
BRANCH  23  24
ATOM     24  C   UNK A  0        4.023  -2.717   3.198  0.00  0.00    +0.229 C 
ATOM     25  C   UNK A  0        3.078  -3.336   4.179  0.00  0.00    +0.048 C 
ENDBRANCH  23  24
ENDBRANCH  21  23
ENDBRANCH  20  21
BRANCH  20  26
ATOM     26  C   UNK A  0        2.497   0.119   0.271  0.00  0.00    +0.035 C 
BRANCH  26  27
ATOM     27  C   UNK A  0        3.470  -0.809  -0.409  0.00  0.00    +0.037 C 
BRANCH  27  28
ATOM     28  C   UNK A  0        4.312   0.078  -1.310  0.00  0.00    -0.047 A 
ATOM     29  C   UNK A  0        5.478   0.625  -0.820  0.00  0.00    +0.003 A 
ATOM     30  C   UNK A  0        6.272   1.439  -1.602  0.00  0.00    +0.000 A 
ATOM     31  C   UNK A  0        5.866   1.691  -2.891  0.00  0.00    +0.000 A 
ATOM     32  C   UNK A  0        4.712   1.153  -3.384  0.00  0.00    +0.000 A 
ATOM     33  C   UNK A  0        3.917   0.336  -2.597  0.00  0.00    +0.003 A 
ENDBRANCH  27  28
ENDBRANCH  26  27
ENDBRANCH  20  26
ENDBRANCH  18  20
ENDBRANCH   1  18
TORSDOF 11
