REMARK  Name = molecules/VXJABHHJLXLNMP-UHFFFAOYSA-N.pdb
REMARK                            x       y       z     vdW  Elec       q    Type
REMARK                         _______ _______ _______ _____ _____    ______ ____
ROOT
ATOM      1  O   LIG    1        1.132  -0.928   0.613  0.00  0.00    -0.459 OA
ENDROOT
BRANCH   1   2
ATOM      2  C   LIG    1        1.975   0.022   1.039  0.00  0.00    +0.339 C 
ATOM      3  O   LIG    1        1.528   0.950   1.784  0.00  0.00    -0.245 OA
BRANCH   2   4
ATOM      4  C   LIG    1        3.410   0.083   0.703  0.00  0.00    +0.059 A 
ATOM      5  C   LIG    1        4.205   1.112   1.162  0.00  0.00    +0.015 A 
ATOM      6  C   LIG    1        5.546   1.196   0.834  0.00  0.00    +0.001 A 
ATOM      7  C   LIG    1        6.147   0.249   0.032  0.00  0.00    +0.000 A 
ATOM      8  C   LIG    1        5.357  -0.788  -0.432  0.00  0.00    +0.001 A 
ATOM      9  C   LIG    1        4.021  -0.861  -0.099  0.00  0.00    +0.015 A 
ENDBRANCH   2   4
ENDBRANCH   1   2
BRANCH   1  10
ATOM     10  C   LIG    1       -0.223  -1.138   0.767  0.00  0.00    +0.254 C 
BRANCH  10  11
ATOM     11  C   LIG    1       -1.070  -0.254  -0.098  0.00  0.00    +0.048 C 
ATOM     12  C   LIG    1       -0.732   1.169   0.002  0.00  0.00    +0.031 C 
ATOM     13  C   LIG    1       -0.855  -0.764  -1.549  0.00  0.00    +0.031 C 
BRANCH  11  14
ATOM     14  N   LIG    1       -2.496  -0.527   0.146  0.00  0.00    -0.308 NA
ATOM     15  H   LIG    1       -2.694  -1.519  -0.067  0.00  0.00    +0.123 HD
BRANCH  14  16
ATOM     16  C   LIG    1       -3.273   0.308  -0.724  0.00  0.00    +0.081 C 
BRANCH  16  17
ATOM     17  C   LIG    1       -4.769  -0.036  -0.675  0.00  0.00    +0.012 C 
ATOM     18  C   LIG    1       -5.323   0.145   0.723  0.00  0.00    +0.005 C 
ENDBRANCH  16  17
ENDBRANCH  14  16
ENDBRANCH  11  14
ENDBRANCH  10  11
ENDBRANCH   1  10
TORSDOF 7
