REMARK  Name = molecules/VXROHTDSRBRJLN-UHFFFAOYSA-O.pdb
REMARK                            x       y       z     vdW  Elec       q    Type
REMARK                         _______ _______ _______ _____ _____    ______ ____
ROOT
ATOM      1  C   LIG    1        0.830   0.512   0.061  0.00  0.00    +0.205 C 
ATOM      2  C   LIG    1        2.212   0.480   0.044  0.00  0.00    +0.067 C 
ATOM      3  C   LIG    1        2.899  -0.712  -0.122  0.00  0.00    +0.104 C 
ATOM      4  C   LIG    1        2.169  -1.870  -0.268  0.00  0.00    +0.132 C 
ATOM      5  N   LIG    1        0.828  -1.796  -0.246  0.00  0.00    -0.183 NA
ATOM      6  N   LIG    1        0.161  -0.641  -0.086  0.00  0.00    -0.161 N 
ENDROOT
BRANCH   6   7
ATOM      7  C   LIG    1       -1.262  -0.625  -0.070  0.00  0.00    +0.060 A 
ATOM      8  C   LIG    1       -1.989  -1.162   0.975  0.00  0.00    +0.025 A 
ATOM      9  C   LIG    1       -3.367  -1.161   1.018  0.00  0.00    +0.002 A 
ATOM     10  C   LIG    1       -4.076  -0.598  -0.030  0.00  0.00    +0.000 A 
ATOM     11  C   LIG    1       -3.377  -0.059  -1.077  0.00  0.00    +0.002 A 
ATOM     12  C   LIG    1       -2.010  -0.069  -1.103  0.00  0.00    +0.025 A 
ENDBRANCH   6   7
BRANCH   3  13
ATOM     13  N   LIG    1        4.307  -0.753  -0.141  0.00  0.00    -0.315 NA
ATOM     14  H   LIG    1        4.871  -0.818   0.724  0.00  0.00    +0.119 HD
ATOM     15  H   LIG    1        4.800  -0.717  -1.050  0.00  0.00    +0.119 HD
ENDBRANCH   3  13
BRANCH   1  16
ATOM     16  O   LIG    1        0.123   1.678   0.223  0.00  0.00    -0.481 OA
ATOM     17  C   LIG    1        0.715   2.946   0.386  0.00  0.00    +0.278 C 
ENDBRANCH   1  16
TORSDOF 3
