REMARK  Name = molecules/VYKKDKFTDMVOBU-UHFFFAOYSA-N.pdb
REMARK                            x       y       z     vdW  Elec       q    Type
REMARK                         _______ _______ _______ _____ _____    ______ ____
ROOT
ATOM      1  C   LIG    1        1.004   0.025   0.042  0.00  0.00    +0.252 C 
ATOM      2  O   LIG    1        0.465  -1.250   0.490  0.00  0.00    -0.270 OA
ATOM      3  N   LIG    1       -0.054   0.869   0.067  0.00  0.00    -0.281 N 
ATOM      4  H   LIG    1        0.001   1.909  -0.078  0.00  0.00    +0.155 HD
ENDROOT
BRANCH   1   5
ATOM      5  C   LIG    1        2.357  -0.201  -0.208  0.00  0.00    +0.080 A 
ATOM      6  C   LIG    1        2.970  -1.414   0.227  0.00  0.00    +0.032 A 
ATOM      7  C   LIG    1        4.333  -1.618   0.069  0.00  0.00    +0.020 A 
ATOM      8 BR   LIG    1        5.116  -3.242   0.676  0.00  0.00    -0.050 Br
ATOM      9  C   LIG    1        5.138  -0.710  -0.494  0.00  0.00    +0.034 A 
ATOM     10  C   LIG    1        4.590   0.486  -0.932  0.00  0.00    +0.061 A 
ATOM     11 BR   LIG    1        5.696   1.822  -1.782  0.00  0.00    -0.046 Br
ATOM     12  C   LIG    1        3.209   0.680  -0.773  0.00  0.00    +0.143 A 
BRANCH  12  13
ATOM     13  O   LIG    1        2.705   1.876  -1.252  0.00  0.00    -0.505 OA
ATOM     14  H   LIG    1        1.792   2.175  -1.228  0.00  0.00    +0.292 HD
ENDBRANCH  12  13
ENDBRANCH   1   5
BRANCH   3  15
ATOM     15  C   LIG    1       -1.394   0.372   0.403  0.00  0.00    +0.034 A 
ATOM     16  C   LIG    1       -1.665  -0.757   1.089  0.00  0.00    +0.023 A 
ATOM     17  C   LIG    1       -2.970  -1.300   1.119  0.00  0.00    +0.002 A 
ATOM     18  C   LIG    1       -3.971  -0.674   0.455  0.00  0.00    +0.012 A 
ATOM     19  C   LIG    1       -3.742   0.505  -0.252  0.00  0.00    +0.057 A 
ATOM     20  C   LIG    1       -2.445   1.014  -0.268  0.00  0.00    +0.035 A 
BRANCH  19  21
ATOM     21  C   LIG    1       -4.815   1.151  -1.028  0.00  0.00    +0.417 C 
ATOM     22  F   LIG    1       -5.430   2.181  -0.362  0.00  0.00    -0.166 F 
ATOM     23  F   LIG    1       -5.804   0.161  -1.306  0.00  0.00    -0.166 F 
ATOM     24  F   LIG    1       -4.379   1.502  -2.332  0.00  0.00    -0.166 F 
ENDBRANCH  19  21
ENDBRANCH   3  15
TORSDOF 4
