REMARK  Name = molecules/VYMDGNCVAMGZFE-UHFFFAOYSA-N.pdb
REMARK                            x       y       z     vdW  Elec       q    Type
REMARK                         _______ _______ _______ _____ _____    ______ ____
ROOT
ATOM      1  O   LIG    1        0.915   2.070   0.251  0.00  0.00    -0.273 OA
ATOM      2  C   LIG    1        0.684   0.844   0.246  0.00  0.00    +0.249 C 
ATOM      3  C   LIG    1        1.630  -0.255   0.394  0.00  0.00    +0.165 C 
ATOM      4  C   LIG    1        0.914  -1.362  -0.287  0.00  0.00    +0.249 C 
ATOM      5  N   LIG    1       -0.473  -1.103  -0.240  0.00  0.00    -0.180 N 
ATOM      6  O   LIG    1        1.455  -2.355  -0.812  0.00  0.00    -0.273 OA
ATOM      7  N   LIG    1       -0.612   0.249   0.086  0.00  0.00    -0.180 N 
ENDROOT
BRANCH   5   8
ATOM      8  C   LIG    1       -1.567  -1.992  -0.466  0.00  0.00    +0.057 A 
ATOM      9  C   LIG    1       -2.458  -2.307   0.538  0.00  0.00    +0.025 A 
ATOM     10  C   LIG    1       -3.524  -3.168   0.334  0.00  0.00    +0.002 A 
ATOM     11  C   LIG    1       -3.737  -3.750  -0.897  0.00  0.00    +0.000 A 
ATOM     12  C   LIG    1       -2.853  -3.443  -1.908  0.00  0.00    +0.002 A 
ATOM     13  C   LIG    1       -1.782  -2.576  -1.697  0.00  0.00    +0.025 A 
ENDBRANCH   5   8
BRANCH   7  14
ATOM     14  C   LIG    1       -1.814   0.956   0.243  0.00  0.00    +0.057 A 
ATOM     15  C   LIG    1       -2.282   1.268   1.486  0.00  0.00    +0.025 A 
ATOM     16  C   LIG    1       -3.471   1.969   1.680  0.00  0.00    +0.002 A 
ATOM     17  C   LIG    1       -4.190   2.355   0.578  0.00  0.00    +0.000 A 
ATOM     18  C   LIG    1       -3.723   2.043  -0.690  0.00  0.00    +0.002 A 
ATOM     19  C   LIG    1       -2.531   1.341  -0.858  0.00  0.00    +0.025 A 
ENDBRANCH   7  14
BRANCH   3  20
ATOM     20  C   LIG    1        3.000  -0.038  -0.146  0.00  0.00    +0.022 C 
BRANCH  20  21
ATOM     21  C   LIG    1        3.730   1.104   0.482  0.00  0.00    +0.001 C 
BRANCH  21  22
ATOM     22  C   LIG    1        5.110   1.187  -0.170  0.00  0.00    -0.003 C 
ATOM     23  C   LIG    1        5.865   2.338   0.449  0.00  0.00    +0.004 C 
ENDBRANCH  21  22
ENDBRANCH  20  21
ENDBRANCH   3  20
TORSDOF 5
