REMARK  Name = molecules/VYQNWZOUAUKGHI-UHFFFAOYSA-N.pdb
REMARK                            x       y       z     vdW  Elec       q    Type
REMARK                         _______ _______ _______ _____ _____    ______ ____
ROOT
ATOM      1  O   LIG    1       -0.162   0.308   0.324  0.00  0.00    -0.487 OA
ENDROOT
BRANCH   1   2
ATOM      2  C   LIG    1       -1.545   0.220   0.340  0.00  0.00    +0.121 A 
ATOM      3  C   LIG    1       -2.297   1.306   0.731  0.00  0.00    +0.049 A 
ATOM      4  C   LIG    1       -3.679   1.263   0.762  0.00  0.00    +0.049 A 
ATOM      5  C   LIG    1       -4.321   0.107   0.395  0.00  0.00    +0.117 A 
ATOM      6  C   LIG    1       -3.596  -1.001  -0.002  0.00  0.00    +0.049 A 
ATOM      7  C   LIG    1       -2.208  -0.925  -0.023  0.00  0.00    +0.049 A 
BRANCH   5   8
ATOM      8  O   LIG    1       -5.709   0.048   0.421  0.00  0.00    -0.507 OA
ATOM      9  H   LIG    1       -6.272   0.303  -0.394  0.00  0.00    +0.292 HD
ENDBRANCH   5   8
ENDBRANCH   1   2
BRANCH   1  10
ATOM     10  C   LIG    1        0.670  -0.759  -0.063  0.00  0.00    +0.264 C 
BRANCH  10  11
ATOM     11  C   LIG    1        2.087  -0.315   0.039  0.00  0.00    -0.010 A 
ATOM     12  C   LIG    1        2.444   0.943   0.450  0.00  0.00    +0.007 A 
ATOM     13  C   LIG    1        3.795   1.295   0.524  0.00  0.00    +0.000 A 
ATOM     14  C   LIG    1        4.775   0.396   0.189  0.00  0.00    +0.000 A 
ATOM     15  C   LIG    1        4.409  -0.856  -0.221  0.00  0.00    +0.000 A 
ATOM     16  C   LIG    1        3.078  -1.212  -0.296  0.00  0.00    +0.007 A 
ENDBRANCH  10  11
ENDBRANCH   1  10
TORSDOF 4
