REMARK  Name = molecules/VYWQZAARVNRSTR-UHFFFAOYSA-N.pdb
REMARK                            x       y       z     vdW  Elec       q    Type
REMARK                         _______ _______ _______ _____ _____    ______ ____
ROOT
ATOM      1  N   LIG    1        0.541  -1.300  -0.676  0.00  0.00    -0.296 N 
ATOM      2  H   LIG    1       -0.146  -2.068  -0.615  0.00  0.00    +0.150 HD
ENDROOT
BRANCH   1   3
ATOM      3  C   LIG    1        1.871  -1.609  -0.277  0.00  0.00    +0.315 A 
ATOM      4  O   LIG    1        2.260  -2.778   0.199  0.00  0.00    -0.317 OA
ATOM      5  N   LIG    1        3.514  -2.707   0.451  0.00  0.00    -0.054 NA
ATOM      6  C   LIG    1        3.992  -1.485   0.149  0.00  0.00    +0.204 A 
ATOM      7  N   LIG    1        2.929  -0.809  -0.310  0.00  0.00    -0.174 NA
BRANCH   6   8
ATOM      8  C   LIG    1        5.363  -0.996   0.278  0.00  0.00    +0.022 A 
ATOM      9  C   LIG    1        6.329  -1.850   0.773  0.00  0.00    +0.012 A 
ATOM     10  C   LIG    1        7.638  -1.419   0.903  0.00  0.00    +0.001 A 
ATOM     11  C   LIG    1        8.021  -0.139   0.546  0.00  0.00    +0.000 A 
ATOM     12  C   LIG    1        7.052   0.704   0.054  0.00  0.00    +0.001 A 
ATOM     13  C   LIG    1        5.736   0.276  -0.077  0.00  0.00    +0.012 A 
ENDBRANCH   6   8
ENDBRANCH   1   3
BRANCH   1  14
ATOM     14  C   LIG    1        0.294   0.031  -1.153  0.00  0.00    +0.121 C 
BRANCH  14  15
ATOM     15  C   LIG    1       -1.107   0.325  -1.556  0.00  0.00    +0.103 C 
BRANCH  15  16
ATOM     16  N   LIG    1       -2.054   0.305  -0.547  0.00  0.00    -0.301 NA
BRANCH  16  17
ATOM     17  C   LIG    1       -2.400  -0.866   0.107  0.00  0.00    +0.084 C 
BRANCH  17  18
ATOM     18  C   LIG    1       -3.592  -0.740   1.055  0.00  0.00    +0.015 C 
BRANCH  18  19
ATOM     19  C   LIG    1       -3.806  -2.118   1.681  0.00  0.00    -0.002 C 
ATOM     20  C   LIG    1       -4.083  -3.175   0.660  0.00  0.00    +0.004 C 
ENDBRANCH  18  19
ENDBRANCH  17  18
ENDBRANCH  16  17
BRANCH  16  21
ATOM     21  C   LIG    1       -2.589   1.550  -0.123  0.00  0.00    +0.084 C 
BRANCH  21  22
ATOM     22  C   LIG    1       -3.427   2.237  -1.190  0.00  0.00    +0.015 C 
BRANCH  22  23
ATOM     23  C   LIG    1       -3.925   3.540  -0.549  0.00  0.00    -0.002 C 
ATOM     24  C   LIG    1       -2.778   4.423  -0.105  0.00  0.00    +0.004 C 
ENDBRANCH  22  23
ENDBRANCH  21  22
ENDBRANCH  16  21
ENDBRANCH  15  16
ENDBRANCH  14  15
ENDBRANCH   1  14
TORSDOF 11
