REMARK  Name = molecules/VYWWNRMSAPEJLS-UPKJDFJRSA-N.pdb
REMARK                            x       y       z     vdW  Elec       q    Type
REMARK                         _______ _______ _______ _____ _____    ______ ____
ROOT
ATOM      1  C   LIG    1       -0.896  -0.633   0.694  0.00  0.00    +0.281 C 
ATOM      2  C   LIG    1       -0.085   0.495   1.297  0.00  0.00    +0.190 C 
ATOM      3  C   LIG    1        0.965  -0.004   2.234  0.00  0.00    +0.121 C 
ATOM      4  C   LIG    1        1.863  -0.990   1.522  0.00  0.00    +0.169 C 
ATOM      5  C   LIG    1        1.018  -1.919   0.725  0.00  0.00    +0.149 C 
ATOM      6  C   LIG    1        1.524  -3.365   0.815  0.00  0.00    +0.041 C 
ATOM      7  O   LIG    1       -0.332  -1.873   0.955  0.00  0.00    -0.343 OA
ENDROOT
BRANCH   3   8
ATOM      8  N   LIG    1        0.345  -0.641   3.366  0.00  0.00    -0.301 NA
ATOM      9  C   LIG    1        1.332  -1.218   4.262  0.00  0.00    +0.105 C 
ATOM     10  C   LIG    1       -0.457   0.286   4.133  0.00  0.00    +0.105 C 
ENDBRANCH   3   8
BRANCH   2  11
ATOM     11  O   LIG    1        0.531   1.176   0.217  0.00  0.00    -0.385 OA
ATOM     12  H   LIG    1        1.126   1.881   0.518  0.00  0.00    +0.210 HD
ENDBRANCH   2  11
BRANCH   4  13
ATOM     13  O   LIG    1        2.809  -0.348   0.733  0.00  0.00    -0.344 OA
BRANCH  13  14
ATOM     14  C   LIG    1        4.101  -0.610   1.091  0.00  0.00    +0.255 C 
ATOM     15  O   LIG    1        4.741   0.547   1.498  0.00  0.00    -0.344 OA
ATOM     16  C   LIG    1        5.563   1.104   0.544  0.00  0.00    +0.163 C 
ATOM     17  C   LIG    1        6.009   2.492   0.873  0.00  0.00    +0.042 C 
ATOM     18  C   LIG    1        6.756   0.208   0.228  0.00  0.00    +0.248 C 
ATOM     19  C   LIG    1        6.369  -1.250   0.368  0.00  0.00    +0.154 C 
ATOM     20  C   LIG    1        6.593  -1.791   1.747  0.00  0.00    +0.060 C 
ATOM     21  C   LIG    1        4.864  -1.322   0.009  0.00  0.00    +0.113 C 
BRANCH  18  22
ATOM     22  O   LIG    1        7.172   0.477  -1.089  0.00  0.00    -0.455 OA
BRANCH  22  23
ATOM     23  C   LIG    1        8.429   1.017  -1.358  0.00  0.00    +0.308 C 
ATOM     24  O   LIG    1        9.181   1.259  -0.375  0.00  0.00    -0.251 OA
BRANCH  23  25
ATOM     25  C   LIG    1        8.910   1.311  -2.710  0.00  0.00    +0.120 C 
BRANCH  25  26
ATOM     26  C   LIG    1        8.670   2.749  -3.066  0.00  0.00    +0.008 C 
ATOM     27  C   LIG    1        9.341   3.738  -2.171  0.00  0.00    +0.004 C 
ENDBRANCH  25  26
ENDBRANCH  23  25
ENDBRANCH  22  23
ENDBRANCH  18  22
BRANCH  19  28
ATOM     28  O   LIG    1        7.020  -1.978  -0.636  0.00  0.00    -0.454 OA
BRANCH  28  29
ATOM     29  C   LIG    1        8.365  -2.229  -0.737  0.00  0.00    +0.307 C 
ATOM     30  O   LIG    1        9.117  -1.776   0.158  0.00  0.00    -0.251 OA
BRANCH  29  31
ATOM     31  C   LIG    1        8.932  -3.018  -1.877  0.00  0.00    +0.117 C 
ATOM     32  C   LIG    1        9.626  -4.240  -1.369  0.00  0.00    +0.015 C 
ENDBRANCH  29  31
ENDBRANCH  28  29
ENDBRANCH  19  28
ENDBRANCH  13  14
ENDBRANCH   4  13
BRANCH   1  33
ATOM     33  O   LIG    1       -2.207  -0.525   1.111  0.00  0.00    -0.343 OA
BRANCH  33  34
ATOM     34  C   LIG    1       -3.129  -0.284   0.113  0.00  0.00    +0.156 C 
ATOM     35  C   LIG    1       -3.591   1.136   0.277  0.00  0.00    +0.176 C 
ATOM     36  C   LIG    1       -4.094   1.533   1.619  0.00  0.00    +0.156 C 
ATOM     37  C   LIG    1       -5.567   1.873   1.697  0.00  0.00    +0.154 C 
ATOM     38  C   LIG    1       -5.890   3.026   0.773  0.00  0.00    +0.310 C 
ATOM     39  O   LIG    1       -5.363   4.117   1.202  0.00  0.00    -0.251 OA
ATOM     40  O   LIG    1       -6.611   2.836  -0.289  0.00  0.00    -0.461 OA
ATOM     41  C   LIG    1       -7.663   3.040  -1.082  0.00  0.00    +0.177 C 
ATOM     42  C   LIG    1       -8.782   2.056  -1.051  0.00  0.00    +0.071 C 
ATOM     43  C   LIG    1       -8.623   0.943  -0.095  0.00  0.00    -0.023 C 
ATOM     44  C   LIG    1       -8.604  -0.344  -0.358  0.00  0.00    -0.004 C 
ATOM     45  C   LIG    1       -8.733  -0.983  -1.660  0.00  0.00    -0.002 C 
ATOM     46  C   LIG    1       -7.879  -0.994  -2.658  0.00  0.00    +0.004 C 
ATOM     47  C   LIG    1       -6.550  -0.349  -2.705  0.00  0.00    +0.140 C 
ATOM     48  C   LIG    1       -5.427  -1.280  -2.202  0.00  0.00    +0.019 C 
ATOM     49  C   LIG    1       -5.380  -1.100  -0.708  0.00  0.00    +0.012 C 
ATOM     50  C   LIG    1       -5.821  -2.703  -2.545  0.00  0.00    +0.010 C 
ATOM     51  C   LIG    1       -8.292   4.446  -1.057  0.00  0.00    +0.052 C 
ATOM     52  C   LIG    1       -4.072  -1.371  -0.037  0.00  0.00    +0.028 C 
BRANCH  35  53
ATOM     53  O   LIG    1       -4.311   1.623  -0.792  0.00  0.00    -0.375 OA
ATOM     54  C   LIG    1       -3.647   2.571  -1.560  0.00  0.00    +0.194 C 
ENDBRANCH  35  53
BRANCH  47  55
ATOM     55  O   LIG    1       -6.231   0.119  -3.987  0.00  0.00    -0.387 OA
ATOM     56  H   LIG    1       -6.856  -0.178  -4.669  0.00  0.00    +0.210 HD
ENDBRANCH  47  55
BRANCH  36  57
ATOM     57  O   LIG    1       -3.816   0.637   2.642  0.00  0.00    -0.389 OA
ATOM     58  H   LIG    1       -3.339   1.013   3.411  0.00  0.00    +0.210 HD
ENDBRANCH  36  57
BRANCH  52  59
ATOM     59  C   LIG    1       -4.398  -2.176   1.204  0.00  0.00    +0.076 C 
BRANCH  59  60
ATOM     60  C   LIG    1       -3.297  -2.853   1.853  0.00  0.00    +0.223 C 
ATOM     61  O   LIG    1       -2.749  -2.338   2.835  0.00  0.00    -0.301 OA
ENDBRANCH  59  60
ENDBRANCH  52  59
ENDBRANCH  33  34
ENDBRANCH   1  33
TORSDOF 18
