REMARK  Name = molecules/VZCCETWTMQHEPK-QNEBEIHSSA-N.pdb
REMARK                            x       y       z     vdW  Elec       q    Type
REMARK                         _______ _______ _______ _____ _____    ______ ____
ROOT
ATOM      1  C   LIG    1        1.619   1.580  -2.110  0.00  0.00    +0.053 C 
ENDROOT
BRANCH   1   3
ATOM      2  C   LIG    1       -0.686   1.387  -1.178  0.00  0.00    -0.027 C 
ATOM      3  C   LIG    1        0.400   2.007  -1.463  0.00  0.00    -0.027 C 
BRANCH   2   4
ATOM      4  C   LIG    1       -1.013  -0.032  -1.444  0.00  0.00    +0.053 C 
BRANCH   4   6
ATOM      5  C   LIG    1       -2.425  -1.166   0.281  0.00  0.00    -0.031 C 
ATOM      6  C   LIG    1       -1.301  -0.637  -0.073  0.00  0.00    -0.027 C 
BRANCH   5   7
ATOM      7  C   LIG    1       -3.579  -1.251  -0.598  0.00  0.00    +0.027 C 
BRANCH   7   8
ATOM      8  C   LIG    1       -4.795  -0.525  -0.035  0.00  0.00    +0.004 C 
BRANCH   8   9
ATOM      9  C   LIG    1       -5.210  -1.107   1.296  0.00  0.00    +0.000 C 
BRANCH   9  11
ATOM     10  C   LIG    1       -6.107   1.129   1.984  0.00  0.00    +0.004 C 
ATOM     11  C   LIG    1       -6.429  -0.339   1.806  0.00  0.00    -0.003 C 
ENDBRANCH   9  11
ENDBRANCH   8   9
ENDBRANCH   7   8
ENDBRANCH   5   7
ENDBRANCH   4   6
ENDBRANCH   2   4
ENDBRANCH   1   3
BRANCH   1  12
ATOM     12  C   LIG    1        1.703   0.244  -2.628  0.00  0.00    -0.027 C 
ATOM     13  C   LIG    1        2.523  -0.688  -2.230  0.00  0.00    -0.031 C 
BRANCH  13  14
ATOM     14  C   LIG    1        3.538  -0.718  -1.231  0.00  0.00    +0.027 C 
BRANCH  14  15
ATOM     15  C   LIG    1        3.923   0.381  -0.354  0.00  0.00    +0.005 C 
BRANCH  15  16
ATOM     16  C   LIG    1        5.069  -0.186   0.565  0.00  0.00    +0.011 C 
BRANCH  16  17
ATOM     17  C   LIG    1        5.473   0.933   1.466  0.00  0.00    +0.120 C 
BRANCH  17  18
ATOM     18  C   LIG    1        6.557   0.489   2.375  0.00  0.00    +0.305 C 
ATOM     19  O   LIG    1        6.244  -0.256   3.336  0.00  0.00    -0.251 OA
BRANCH  18  20
ATOM     20  O   LIG    1        7.873   0.867   2.193  0.00  0.00    -0.481 OA
ATOM     21  H   LIG    1        8.317   0.682   1.294  0.00  0.00    +0.295 HD
ENDBRANCH  18  20
ENDBRANCH  17  18
ENDBRANCH  16  17
ENDBRANCH  15  16
ENDBRANCH  14  15
ENDBRANCH  13  14
ENDBRANCH   1  12
TORSDOF 14
