REMARK  Name = molecules/VZCYOOQTPOCHFL-OWOJBTEDSA-N.pdb
REMARK                            x       y       z     vdW  Elec       q    Type
REMARK                         _______ _______ _______ _____ _____    ______ ____
ROOT
ATOM      1  C   LIG    1       -0.586   0.262   0.294  0.00  0.00    +0.098 C 
ATOM      2  C   LIG    1        0.546  -0.366   0.026  0.00  0.00    +0.098 C 
ENDROOT
BRANCH   1   3
ATOM      3  C   LIG    1       -1.865  -0.358   0.022  0.00  0.00    +0.330 C 
ATOM      4  O   LIG    1       -1.901  -1.505  -0.473  0.00  0.00    -0.246 OA
BRANCH   3   5
ATOM      5  O   LIG    1       -3.061   0.282   0.294  0.00  0.00    -0.478 OA
ATOM      6  H   LIG    1       -3.107   1.303   0.347  0.00  0.00    +0.295 HD
ENDBRANCH   3   5
ENDBRANCH   1   3
BRANCH   2   7
ATOM      7  C   LIG    1        1.846   0.252   0.297  0.00  0.00    +0.330 C 
ATOM      8  O   LIG    1        1.963   1.383   0.786  0.00  0.00    -0.246 OA
BRANCH   7   9
ATOM      9  O   LIG    1        2.997  -0.460  -0.006  0.00  0.00    -0.478 OA
ATOM     10  H   LIG    1        3.225  -0.693  -0.968  0.00  0.00    +0.295 HD
ENDBRANCH   7   9
ENDBRANCH   2   7
TORSDOF 4
