REMARK  Name = molecules/VZGDMQKNWNREIO-UHFFFAOYSA-N.pdb
REMARK                            x       y       z     vdW  Elec       q    Type
REMARK                         _______ _______ _______ _____ _____    ______ ____
ROOT
ATOM      1 CL   LIG    1        1.413  -1.085  -0.146  0.00  0.00    -0.067 Cl
ATOM      2  C   LIG    1        0.005  -0.004  -0.007  0.00  0.00    +0.266 C 
ATOM      3 CL   LIG    1       -0.758  -0.280   1.573  0.00  0.00    -0.067 Cl
ATOM      4 CL   LIG    1        0.516   1.695  -0.123  0.00  0.00    -0.067 Cl
ATOM      5 CL   LIG    1       -1.175  -0.326  -1.297  0.00  0.00    -0.067 Cl
ENDROOT
TORSDOF 0
