REMARK  Name = molecules/VZSXTYKGYWISGQ-UHFFFAOYSA-N.pdb
REMARK                            x       y       z     vdW  Elec       q    Type
REMARK                         _______ _______ _______ _____ _____    ______ ____
ROOT
ATOM      1  N   LIG    1       -0.202  -0.175   0.767  0.00  0.00    -0.322 N 
ENDROOT
BRANCH   1   2
ATOM      2  C   LIG    1        1.070   0.048   1.383  0.00  0.00    +0.076 C 
ATOM      3  C   LIG    1        2.013  -1.123   1.349  0.00  0.00    +0.038 C 
ATOM      4  C   LIG    1        2.906  -1.121   0.139  0.00  0.00    +0.086 C 
ATOM      5  N   LIG    1        3.566   0.140  -0.042  0.00  0.00    -0.305 NA
ATOM      6  C   LIG    1        3.200   1.134   0.948  0.00  0.00    +0.086 C 
ATOM      7  C   LIG    1        4.982   0.046  -0.203  0.00  0.00    +0.104 C 
ATOM      8  C   LIG    1        1.679   1.300   0.838  0.00  0.00    +0.038 C 
ENDBRANCH   1   2
BRANCH   1   9
ATOM      9  C   LIG    1       -0.654   0.747  -0.211  0.00  0.00    +0.030 A 
ATOM     10  C   LIG    1       -1.377   1.888   0.136  0.00  0.00    +0.023 A 
ATOM     11  C   LIG    1       -1.820   2.788  -0.788  0.00  0.00    +0.002 A 
ATOM     12  C   LIG    1       -1.563   2.597  -2.127  0.00  0.00    +0.000 A 
ATOM     13  C   LIG    1       -0.846   1.472  -2.513  0.00  0.00    +0.002 A 
ATOM     14  C   LIG    1       -0.410   0.579  -1.557  0.00  0.00    +0.023 A 
ENDBRANCH   1   9
BRANCH   1  15
ATOM     15  C   LIG    1       -0.992  -1.325   1.154  0.00  0.00    +0.140 C 
BRANCH  15  16
ATOM     16  C   LIG    1       -2.274  -1.397   0.440  0.00  0.00    -0.030 A 
ATOM     17  C   LIG    1       -3.398  -0.808   0.972  0.00  0.00    +0.005 A 
ATOM     18  C   LIG    1       -4.629  -0.858   0.324  0.00  0.00    +0.000 A 
ATOM     19  C   LIG    1       -4.761  -1.507  -0.888  0.00  0.00    +0.000 A 
ATOM     20  C   LIG    1       -3.638  -2.097  -1.424  0.00  0.00    +0.000 A 
ATOM     21  C   LIG    1       -2.422  -2.042  -0.773  0.00  0.00    +0.005 A 
ENDBRANCH  15  16
ENDBRANCH   1  15
TORSDOF 4
