REMARK  Name = molecules/WAEXFXRVDQXREF-UHFFFAOYSA-N.pdb
REMARK                            x       y       z     vdW  Elec       q    Type
REMARK                         _______ _______ _______ _____ _____    ______ ____
ROOT
ATOM      1  C   LIG    1       -0.533   1.634   0.407  0.00  0.00    +0.009 C 
ENDROOT
BRANCH   1   2
ATOM      2  C   LIG    1       -1.112   0.648  -0.566  0.00  0.00    +0.000 C 
BRANCH   2   3
ATOM      3  C   LIG    1       -2.135   1.355  -1.476  0.00  0.00    +0.000 C 
BRANCH   3   4
ATOM      4  C   LIG    1       -3.258   1.953  -0.698  0.00  0.00    +0.009 C 
BRANCH   4   5
ATOM      5  C   LIG    1       -4.059   0.981   0.111  0.00  0.00    +0.098 C 
BRANCH   5   8
ATOM      6  N   LIG    1       -5.441  -1.105  -0.205  0.00  0.00    -0.197 N 
ATOM      7  H   LIG    1       -5.505  -1.183   0.835  0.00  0.00    +0.182 HD
ATOM      8  C   LIG    1       -4.706  -0.009  -0.765  0.00  0.00    +0.235 C 
ATOM      9  O   LIG    1       -4.648   0.057  -2.017  0.00  0.00    -0.274 OA
BRANCH   6  10
ATOM     10  O   LIG    1       -6.022  -1.994  -1.026  0.00  0.00    -0.295 OA
ATOM     11  H   LIG    1       -5.561  -2.885  -0.998  0.00  0.00    +0.241 HD
ENDBRANCH   6  10
ENDBRANCH   5   8
ENDBRANCH   4   5
ENDBRANCH   3   4
ENDBRANCH   2   3
ENDBRANCH   1   2
BRANCH   1  12
ATOM     12  C   LIG    1        0.456   0.974   1.292  0.00  0.00    +0.096 C 
BRANCH  12  13
ATOM     13  C   LIG    1        1.619   0.460   0.504  0.00  0.00    +0.217 C 
ATOM     14  N   LIG    1        2.605  -0.339   1.114  0.00  0.00    -0.285 N 
ATOM     15  H   LIG    1        2.442  -0.534   2.158  0.00  0.00    +0.155 HD
ATOM     16  O   LIG    1        1.722   0.740  -0.713  0.00  0.00    -0.275 OA
BRANCH  14  17
ATOM     17  C   LIG    1        3.745  -0.886   0.519  0.00  0.00    +0.033 A 
ATOM     18  C   LIG    1        4.451  -1.891   1.217  0.00  0.00    +0.023 A 
ATOM     19  C   LIG    1        5.586  -2.457   0.695  0.00  0.00    +0.002 A 
ATOM     20  C   LIG    1        6.067  -2.053  -0.532  0.00  0.00    +0.000 A 
ATOM     21  C   LIG    1        5.404  -1.076  -1.238  0.00  0.00    +0.002 A 
ATOM     22  C   LIG    1        4.236  -0.496  -0.697  0.00  0.00    +0.023 A 
ENDBRANCH  14  17
ENDBRANCH  12  13
ENDBRANCH   1  12
TORSDOF 9
