REMARK  Name = molecules/WAFIYOULDIWAKR-NSHDSACASA-N.pdb
REMARK                            x       y       z     vdW  Elec       q    Type
REMARK                         _______ _______ _______ _____ _____    ______ ____
ROOT
ATOM      1  C   LIG    1       -0.134  -0.724   0.213  0.00  0.00    +0.125 C 
ENDROOT
BRANCH   1   2
ATOM      2  C   LIG    1        1.101  -0.009   0.005  0.00  0.00    -0.013 A 
ATOM      3  C   LIG    1        2.285  -0.721   0.177  0.00  0.00    +0.006 A 
ATOM      4  C   LIG    1        3.506  -0.103   0.004  0.00  0.00    +0.000 A 
ATOM      5  C   LIG    1        3.590   1.231  -0.343  0.00  0.00    +0.000 A 
ATOM      6  C   LIG    1        2.435   1.952  -0.518  0.00  0.00    +0.000 A 
ATOM      7  C   LIG    1        1.199   1.316  -0.340  0.00  0.00    +0.006 A 
ENDBRANCH   1   2
BRANCH   1   8
ATOM      8  O   LIG    1       -0.153  -1.095   1.591  0.00  0.00    -0.381 OA
ATOM      9  H   LIG    1        0.598  -1.758   1.639  0.00  0.00    +0.211 HD
ENDBRANCH   1   8
BRANCH   1  10
ATOM     10  C   LIG    1       -0.178  -2.034  -0.546  0.00  0.00    +0.040 C 
ATOM     11  C   LIG    1       -1.361  -2.870  -0.059  0.00  0.00    +0.007 C 
ENDBRANCH   1  10
BRANCH   1  12
ATOM     12  C   LIG    1       -1.407   0.009  -0.060  0.00  0.00    +0.273 C 
BRANCH  12  13
ATOM     13  O   LIG    1       -1.577   1.175   0.692  0.00  0.00    -0.447 OA
BRANCH  13  14
ATOM     14  C   LIG    1       -2.728   1.925   0.489  0.00  0.00    +0.398 C 
ATOM     15  N   LIG    1       -3.011   3.121   1.187  0.00  0.00    -0.295 N 
ATOM     16  H   LIG    1       -3.942   3.279   1.580  0.00  0.00    +0.148 HD
ATOM     17  H   LIG    1       -2.269   3.826   1.302  0.00  0.00    +0.148 HD
ATOM     18  O   LIG    1       -3.609   1.555  -0.360  0.00  0.00    -0.227 OA
ENDBRANCH  13  14
ENDBRANCH  12  13
ENDBRANCH   1  12
TORSDOF 6
