REMARK  Name = molecules/WAXQNWCZJDTGBU-UHFFFAOYSA-N.pdb
REMARK                            x       y       z     vdW  Elec       q    Type
REMARK                         _______ _______ _______ _____ _____    ______ ____
ROOT
ATOM      1  N   LIG    1       -1.022  -0.231  -0.535  0.00  0.00    -0.272 N 
ATOM      2  C   LIG    1       -1.437  -0.045   0.842  0.00  0.00    +0.230 C 
ATOM      3  O   LIG    1       -0.476   0.225   1.680  0.00  0.00    -0.274 OA
ATOM      4  C   LIG    1       -1.905  -0.405  -1.606  0.00  0.00    +0.138 C 
ENDROOT
BRANCH   1   9
ATOM      5  N   LIG    1        2.217   1.402  -0.285  0.00  0.00    -0.238 NA
ATOM      6  C   LIG    1        3.112   0.374  -0.329  0.00  0.00    +0.122 A 
ATOM      7  C   LIG    1        2.663  -0.891  -0.551  0.00  0.00    +0.054 A 
ATOM      8  C   LIG    1        1.270  -1.151  -0.719  0.00  0.00    +0.008 A 
ATOM      9  C   LIG    1        0.404  -0.125  -0.658  0.00  0.00    +0.062 A 
ATOM     10  C   LIG    1        0.919   1.171  -0.441  0.00  0.00    +0.137 A 
BRANCH   6  11
ATOM     11  N   LIG    1        4.434   0.634   0.043  0.00  0.00    -0.313 N 
ATOM     12  C   LIG    1        4.631   1.095   1.441  0.00  0.00    +0.122 C 
ATOM     13  C   LIG    1        6.066   1.307   1.774  0.00  0.00    +0.103 C 
ATOM     14  N   LIG    1        6.861   1.879   0.748  0.00  0.00    -0.302 NA
ATOM     15  C   LIG    1        7.177   3.294   1.029  0.00  0.00    +0.105 C 
ATOM     16  C   LIG    1        6.354   1.821  -0.578  0.00  0.00    +0.103 C 
ATOM     17  C   LIG    1        5.586   0.484  -0.740  0.00  0.00    +0.122 C 
ENDBRANCH   6  11
BRANCH   8  18
ATOM     18  C   LIG    1        0.945  -2.543  -0.902  0.00  0.00    -0.013 A 
ATOM     19  C   LIG    1        0.943  -3.376   0.225  0.00  0.00    +0.009 A 
ATOM     20  C   LIG    1        0.708  -4.736   0.102  0.00  0.00    +0.001 A 
ATOM     21  C   LIG    1        0.470  -5.291  -1.156  0.00  0.00    +0.000 A 
ATOM     22  C   LIG    1        0.473  -4.468  -2.246  0.00  0.00    +0.004 A 
ATOM     23  C   LIG    1        0.709  -3.105  -2.117  0.00  0.00    -0.043 A 
ATOM     24  C   LIG    1        0.699  -2.322  -3.387  0.00  0.00    +0.044 C 
ENDBRANCH   8  18
ENDBRANCH   1   9
BRANCH   2  25
ATOM     25  C   LIG    1       -2.734  -0.108   1.431  0.00  0.00    +0.067 C 
ATOM     26  C   LIG    1       -2.640   0.562   2.835  0.00  0.00    +0.025 C 
ATOM     27  C   LIG    1       -3.077  -1.564   1.754  0.00  0.00    +0.025 C 
BRANCH  25  28
ATOM     28  C   LIG    1       -3.843   0.598   0.789  0.00  0.00    -0.032 A 
ATOM     29  C   LIG    1       -5.098   0.075   0.936  0.00  0.00    +0.017 A 
ATOM     30  C   LIG    1       -6.238   0.672   0.431  0.00  0.00    +0.056 A 
ATOM     31  C   LIG    1       -6.036   1.872  -0.259  0.00  0.00    +0.024 A 
ATOM     32  C   LIG    1       -4.777   2.409  -0.413  0.00  0.00    +0.056 A 
ATOM     33  C   LIG    1       -3.675   1.763   0.117  0.00  0.00    +0.017 A 
BRANCH  30  34
ATOM     34  C   LIG    1       -7.587   0.082   0.640  0.00  0.00    +0.417 C 
ATOM     35  F   LIG    1       -7.534  -0.870   1.658  0.00  0.00    -0.166 F 
ATOM     36  F   LIG    1       -8.431   1.088   1.053  0.00  0.00    -0.166 F 
ATOM     37  F   LIG    1       -8.092  -0.490  -0.517  0.00  0.00    -0.166 F 
ENDBRANCH  30  34
BRANCH  32  38
ATOM     38  C   LIG    1       -4.680   3.680  -1.169  0.00  0.00    +0.417 C 
ATOM     39  F   LIG    1       -4.944   4.709  -0.251  0.00  0.00    -0.166 F 
ATOM     40  F   LIG    1       -3.410   3.808  -1.671  0.00  0.00    -0.166 F 
ATOM     41  F   LIG    1       -5.617   3.698  -2.165  0.00  0.00    -0.166 F 
ENDBRANCH  32  38
ENDBRANCH  25  28
ENDBRANCH   2  25
TORSDOF 7
