REMARK  Name = molecules/WBEBQCINXJDZCX-UHFFFAOYSA-N.pdb
REMARK                            x       y       z     vdW  Elec       q    Type
REMARK                         _______ _______ _______ _____ _____    ______ ____
ROOT
ATOM      1  C   LIG    1        1.477   0.393  -0.662  0.00  0.00    +0.128 A 
ATOM      2  C   LIG    1        2.277  -0.494   0.035  0.00  0.00    -0.014 A 
ATOM      3  C   LIG    1        1.585  -1.459   0.799  0.00  0.00    +0.007 A 
ATOM      4  C   LIG    1        0.247  -1.566   0.894  0.00  0.00    +0.009 A 
ATOM      5  C   LIG    1       -0.539  -0.678   0.203  0.00  0.00    -0.016 A 
ATOM      6  C   LIG    1       -1.905  -0.734   0.319  0.00  0.00    +0.012 A 
ATOM      7  C   LIG    1       -2.740   0.164  -0.316  0.00  0.00    -0.041 A 
ATOM      8  C   LIG    1       -2.122   1.116  -1.072  0.00  0.00    +0.005 A 
ATOM      9  C   LIG    1       -0.742   1.206  -1.216  0.00  0.00    +0.011 A 
ATOM     10  C   LIG    1        0.054   0.289  -0.566  0.00  0.00    +0.010 A 
ENDROOT
BRANCH   7  11
ATOM     11  C   LIG    1       -4.223   0.093  -0.133  0.00  0.00    -0.013 C 
ATOM     12  C   LIG    1       -4.612   0.410   1.295  0.00  0.00    +0.015 C 
ATOM     13  C   LIG    1       -4.758  -1.304  -0.448  0.00  0.00    +0.015 C 
ATOM     14  C   LIG    1       -4.955   1.043  -1.039  0.00  0.00    +0.015 C 
ENDBRANCH   7  11
BRANCH   2  15
ATOM     15  C   LIG    1        3.723  -0.431   0.029  0.00  0.00    -0.011 C 
ATOM     16  C   LIG    1        4.153  -1.583   1.029  0.00  0.00    +0.015 C 
ATOM     17  C   LIG    1        4.269   0.759   0.824  0.00  0.00    +0.015 C 
ATOM     18  C   LIG    1        4.546  -0.795  -1.130  0.00  0.00    +0.015 C 
ENDBRANCH   2  15
BRANCH   1  19
ATOM     19  S   LIG    1        2.122   1.583  -1.675  0.00  0.00    +0.110 S 
ATOM     20  O   LIG    1        3.346   1.153  -2.512  0.00  0.00    -0.142 OA
ATOM     21  O   LIG    1        1.220   1.846  -2.907  0.00  0.00    -0.142 OA
BRANCH  19  22
ATOM     22  O   LIG    1        2.345   3.102  -1.023  0.00  0.00    -0.250 OA
ATOM     23  H   LIG    1        2.304   3.008  -0.017  0.00  0.00    +0.245 HD
ENDBRANCH  19  22
ENDBRANCH   1  19
TORSDOF 4
