REMARK  Name = molecules/WBGKWQHBNHJJPZ-LECWWXJVSA-N.pdb
REMARK                            x       y       z     vdW  Elec       q    Type
REMARK                         _______ _______ _______ _____ _____    ______ ____
ROOT
ATOM      1  C   LIG    1       -2.352   0.419  -0.442  0.00  0.00    +0.164 C 
ATOM      2  O   LIG    1       -2.901  -0.182   0.682  0.00  0.00    -0.332 OA
ATOM      3  C   LIG    1       -3.089  -1.523   0.394  0.00  0.00    +0.166 C 
ATOM      4  C   LIG    1       -2.550  -2.321   1.567  0.00  0.00    +0.074 C 
ATOM      5  C   LIG    1       -4.574  -1.846   0.198  0.00  0.00    +0.074 C 
ATOM      6  O   LIG    1       -2.464  -1.804  -0.794  0.00  0.00    -0.343 OA
ATOM      7  C   LIG    1       -0.927   0.837  -0.237  0.00  0.00    +0.012 C 
ATOM      8  C   LIG    1       -0.546   0.944   1.219  0.00  0.00    +0.042 C 
ATOM      9  C   LIG    1        0.933   0.943   1.455  0.00  0.00    +0.120 C 
ATOM     10  C   LIG    1        1.708   0.015   0.607  0.00  0.00    +0.035 C 
ATOM     11  C   LIG    1        3.203   0.245   0.693  0.00  0.00    +0.013 C 
ATOM     12  C   LIG    1        3.572   0.285   2.114  0.00  0.00    -0.012 C 
ATOM     13  C   LIG    1        4.392  -0.592   2.646  0.00  0.00    +0.047 C 
ATOM     14  C   LIG    1        5.002  -1.667   1.889  0.00  0.00    +0.179 C 
ATOM     15  O   LIG    1        5.777  -2.476   2.442  0.00  0.00    -0.288 OA
ATOM     16  C   LIG    1        4.659  -1.738   0.481  0.00  0.00    +0.051 C 
ATOM     17  C   LIG    1        3.589   1.546  -0.003  0.00  0.00    +0.020 C 
ATOM     18  C   LIG    1        3.841  -0.859  -0.032  0.00  0.00    -0.056 C 
ATOM     19  C   LIG    1        3.483  -0.959  -1.506  0.00  0.00    +0.032 C 
ATOM     20  C   LIG    1        1.983  -1.158  -1.554  0.00  0.00    +0.008 C 
ATOM     21  C   LIG    1        1.253  -0.045  -0.834  0.00  0.00    -0.000 C 
ATOM     22  C   LIG    1       -0.195  -0.377  -0.773  0.00  0.00    +0.004 C 
ATOM     23  C   LIG    1       -0.900  -0.618  -2.054  0.00  0.00    +0.039 C 
ATOM     24  C   LIG    1       -0.589   2.114  -0.916  0.00  0.00    +0.015 C 
ATOM     25  C   LIG    1       -2.347  -0.651  -1.527  0.00  0.00    +0.162 C 
ENDROOT
BRANCH   1  26
ATOM     26  C   LIG    1       -3.262   1.499  -0.871  0.00  0.00    +0.193 C 
ATOM     27  O   LIG    1       -2.984   2.143  -1.862  0.00  0.00    -0.292 OA
BRANCH  26  28
ATOM     28  C   LIG    1       -4.513   1.848  -0.150  0.00  0.00    +0.233 C 
BRANCH  28  29
ATOM     29  O   LIG    1       -5.173   2.907  -0.771  0.00  0.00    -0.387 OA
ATOM     30  H   LIG    1       -6.047   2.666  -1.140  0.00  0.00    +0.210 HD
ENDBRANCH  28  29
ENDBRANCH  26  28
ENDBRANCH   1  26
BRANCH   9  31
ATOM     31  O   LIG    1        1.462   2.244   1.437  0.00  0.00    -0.391 OA
ATOM     32  H   LIG    1        1.318   2.705   2.314  0.00  0.00    +0.210 HD
ENDBRANCH   9  31
TORSDOF 4
