REMARK  Name = molecules/WBHHMMIMDMUBKC-QJWNTBNXSA-N.pdb
REMARK                            x       y       z     vdW  Elec       q    Type
REMARK                         _______ _______ _______ _____ _____    ______ ____
ROOT
ATOM      1  C   LIG    1        0.996  -2.746  -0.208  0.00  0.00    -0.029 C 
ATOM      2  C   LIG    1       -0.222  -3.085   0.202  0.00  0.00    -0.031 C 
ENDROOT
BRANCH   2   3
ATOM      3  C   LIG    1       -1.414  -2.946  -0.613  0.00  0.00    +0.027 C 
BRANCH   3   4
ATOM      4  C   LIG    1       -2.358  -1.995   0.136  0.00  0.00    +0.004 C 
BRANCH   4   5
ATOM      5  C   LIG    1       -1.734  -0.660   0.348  0.00  0.00    +0.000 C 
BRANCH   5   6
ATOM      6  C   LIG    1       -2.664   0.244   1.089  0.00  0.00    +0.000 C 
BRANCH   6   7
ATOM      7  C   LIG    1       -3.927   0.439   0.314  0.00  0.00    +0.001 C 
BRANCH   7   8
ATOM      8  C   LIG    1       -4.897   1.366   1.031  0.00  0.00    +0.011 C 
BRANCH   8   9
ATOM      9  C   LIG    1       -6.135   1.490   0.159  0.00  0.00    +0.120 C 
BRANCH   9  10
ATOM     10  C   LIG    1       -7.138   2.380   0.784  0.00  0.00    +0.305 C 
ATOM     11  O   LIG    1       -8.217   2.583   0.183  0.00  0.00    -0.251 OA
BRANCH  10  12
ATOM     12  O   LIG    1       -6.932   3.001   2.012  0.00  0.00    -0.481 OA
ATOM     13  H   LIG    1       -7.667   3.282   2.623  0.00  0.00    +0.295 HD
ENDBRANCH  10  12
ENDBRANCH   9  10
ENDBRANCH   8   9
ENDBRANCH   7   8
ENDBRANCH   6   7
ENDBRANCH   5   6
ENDBRANCH   4   5
ENDBRANCH   3   4
ENDBRANCH   2   3
BRANCH   1  14
ATOM     14  C   LIG    1        1.256  -2.202  -1.512  0.00  0.00    +0.058 C 
BRANCH  14  15
ATOM     15  C   LIG    1        1.819  -0.847  -1.602  0.00  0.00    +0.118 C 
BRANCH  15  16
ATOM     16  O   LIG    1        1.751  -0.387  -2.970  0.00  0.00    -0.391 OA
ATOM     17  H   LIG    1        0.810  -0.198  -3.199  0.00  0.00    +0.210 HD
ENDBRANCH  15  16
BRANCH  15  18
ATOM     18  C   LIG    1        3.164  -0.552  -1.083  0.00  0.00    +0.031 C 
BRANCH  18  19
ATOM     19  C   LIG    1        3.396  -0.806   0.341  0.00  0.00    +0.003 C 
BRANCH  19  20
ATOM     20  C   LIG    1        4.699  -0.359   0.929  0.00  0.00    +0.000 C 
BRANCH  20  21
ATOM     21  C   LIG    1        5.056   1.041   1.048  0.00  0.00    -0.000 C 
BRANCH  21  22
ATOM     22  C   LIG    1        5.139   1.950  -0.106  0.00  0.00    -0.003 C 
ATOM     23  C   LIG    1        5.649   3.350   0.368  0.00  0.00    +0.004 C 
ENDBRANCH  21  22
ENDBRANCH  20  21
ENDBRANCH  19  20
ENDBRANCH  18  19
ENDBRANCH  15  18
ENDBRANCH  14  15
ENDBRANCH   1  14
TORSDOF 17
