REMARK  Name = molecules/WBLXZPHICYCDGN-GFCCVEGCSA-N.pdb
REMARK                            x       y       z     vdW  Elec       q    Type
REMARK                         _______ _______ _______ _____ _____    ______ ____
ROOT
ATOM      1  C   LIG    1        0.380   2.071  -0.548  0.00  0.00    +0.177 C 
ENDROOT
BRANCH   1   2
ATOM      2  O   LIG    1        0.140   3.349  -0.074  0.00  0.00    -0.386 OA
ATOM      3  H   LIG    1        0.319   3.438   0.892  0.00  0.00    +0.210 HD
ENDBRANCH   1   2
BRANCH   1   4
ATOM      4  C   LIG    1        1.755   1.581  -0.079  0.00  0.00    +0.262 C 
BRANCH   4   5
ATOM      5  O   LIG    1        1.920   0.271  -0.606  0.00  0.00    -0.489 OA
BRANCH   5   6
ATOM      6  C   LIG    1        3.115  -0.392  -0.310  0.00  0.00    +0.121 A 
ATOM      7  C   LIG    1        4.109   0.172   0.458  0.00  0.00    +0.045 A 
ATOM      8  C   LIG    1        5.284  -0.510   0.736  0.00  0.00    +0.004 A 
ATOM      9  C   LIG    1        5.500  -1.784   0.252  0.00  0.00    +0.000 A 
ATOM     10  C   LIG    1        4.507  -2.354  -0.518  0.00  0.00    +0.004 A 
ATOM     11  C   LIG    1        3.325  -1.666  -0.797  0.00  0.00    +0.045 A 
ENDBRANCH   5   6
ENDBRANCH   4   5
ENDBRANCH   1   4
BRANCH   1  12
ATOM     12  C   LIG    1       -0.620   1.056  -0.073  0.00  0.00    +0.194 C 
BRANCH  12  13
ATOM     13  O   LIG    1       -1.919   1.361  -0.461  0.00  0.00    -0.377 OA
BRANCH  13  14
ATOM     14  C   LIG    1       -2.746   0.342   0.044  0.00  0.00    +0.160 C 
BRANCH  14  15
ATOM     15  C   LIG    1       -4.197   0.600  -0.339  0.00  0.00    +0.028 C 
BRANCH  15  16
ATOM     16  C   LIG    1       -5.037  -0.512   0.220  0.00  0.00    -0.001 C 
ATOM     17  C   LIG    1       -4.637  -1.863  -0.309  0.00  0.00    +0.004 C 
ENDBRANCH  15  16
ENDBRANCH  14  15
ENDBRANCH  13  14
ENDBRANCH  12  13
ENDBRANCH   1  12
TORSDOF 9
