REMARK  Name = molecules/WBXPDJSOTKVWSJ-ZDUSSCGKSA-N.pdb
REMARK                            x       y       z     vdW  Elec       q    Type
REMARK                         _______ _______ _______ _____ _____    ______ ____
ROOT
ATOM      1  C   UNK A  0       -1.108  -0.090   0.915  0.00  0.00    -0.047 A 
ATOM      2  C   UNK A  0       -0.400  -0.831   1.834  0.00  0.00    +0.004 A 
ATOM      3  C   UNK A  0        0.993  -0.840   1.807  0.00  0.00    +0.013 A 
ATOM      4  C   UNK A  0        1.677  -0.110   0.860  0.00  0.00    +0.037 A 
ATOM      5  C   UNK A  0        0.940   0.620  -0.044  0.00  0.00    +0.013 A 
ATOM      6  C   UNK A  0       -0.439   0.645  -0.037  0.00  0.00    +0.004 A 
ENDROOT
BRANCH   4   7
ATOM      7  C   UNK A  0        3.156  -0.131   0.843  0.00  0.00    +0.245 C 
ATOM      8  O   UNK A  0        3.765  -0.833   1.689  0.00  0.00    -0.270 OA
ATOM      9  N   GLU A  1        3.893   0.614  -0.096  0.00  0.00    -0.298 N 
ATOM     10  H   GLU A  1        3.488   1.217  -0.826  0.00  0.00    +0.150 HD
BRANCH   9  11
ATOM     11  CA  GLU A  1        5.355   0.550  -0.060  0.00  0.00    +0.182 C 
BRANCH  11  12
ATOM     12  C   GLU A  1        5.901   1.879   0.295  0.00  0.00    +0.325 C 
ATOM     13  OXT GLU A  1        5.122   2.846   0.472  0.00  0.00    -0.249 OA
BRANCH  12  14
ATOM     14  O   GLU A  1        7.254   2.060   0.432  0.00  0.00    -0.479 OA
ATOM     15  H   GLU A  1        7.650   2.924   0.789  0.00  0.00    +0.295 HD
ENDBRANCH  12  14
ENDBRANCH  11  12
BRANCH  11  16
ATOM     16  CB  GLU A  1        5.769   0.092  -1.427  0.00  0.00    +0.045 C 
BRANCH  16  17
ATOM     17  CG  GLU A  1        7.230  -0.042  -1.610  0.00  0.00    +0.123 C 
BRANCH  17  18
ATOM     18  CD  GLU A  1        7.807  -1.030  -0.694  0.00  0.00    +0.305 C 
ATOM     19  OE2 GLU A  1        7.108  -1.701   0.080  0.00  0.00    -0.251 OA
BRANCH  18  20
ATOM     20  OE1 GLU A  1        9.188  -1.211  -0.704  0.00  0.00    -0.481 OA
ATOM     21  HE1 GLU A  1        9.801  -0.610  -0.168  0.00  0.00    +0.295 HD
ENDBRANCH  18  20
ENDBRANCH  17  18
ENDBRANCH  16  17
ENDBRANCH  11  16
ENDBRANCH   9  11
ENDBRANCH   4   7
BRANCH   1  22
ATOM     22  C   UNK A  0       -2.573  -0.099   0.968  0.00  0.00    +0.040 C 
BRANCH  22  23
ATOM     23  C   UNK A  0       -3.161  -1.208   0.125  0.00  0.00    +0.042 C 
BRANCH  23  24
ATOM     24  C   UNK A  0       -4.647  -1.222   0.163  0.00  0.00    -0.015 A 
ATOM     25  C   UNK A  0       -5.471  -2.064   0.886  0.00  0.00    +0.088 A 
ATOM     26  N   UNK A  0       -6.756  -1.746   0.654  0.00  0.00    -0.347 N 
ATOM     27  H   UNK A  0       -7.602  -2.204   1.058  0.00  0.00    +0.167 HD
ATOM     28  C   UNK A  0       -6.840  -0.709  -0.209  0.00  0.00    +0.124 A 
ATOM     29  N   UNK A  0       -7.887  -0.048  -0.736  0.00  0.00    -0.314 N 
ATOM     30  H   UNK A  0       -8.873  -0.294  -0.505  0.00  0.00    +0.170 HD
ATOM     31  C   UNK A  0       -7.682   0.967  -1.591  0.00  0.00    +0.195 A 
ATOM     32  N   UNK A  0       -6.410   1.303  -1.905  0.00  0.00    -0.177 NA
ATOM     33  C   UNK A  0       -5.339   0.658  -1.391  0.00  0.00    +0.284 A 
ATOM     34  O   UNK A  0       -4.159   0.979  -1.690  0.00  0.00    -0.265 OA
ATOM     35  C   UNK A  0       -5.520  -0.381  -0.517  0.00  0.00    +0.086 A 
BRANCH  31  36
ATOM     36  N   UNK A  0       -8.767   1.700  -2.178  0.00  0.00    -0.329 N 
ATOM     37  H   UNK A  0       -9.470   2.213  -1.614  0.00  0.00    +0.145 HD
ATOM     38  H   UNK A  0       -8.877   1.734  -3.222  0.00  0.00    +0.145 HD
ENDBRANCH  31  36
ENDBRANCH  23  24
ENDBRANCH  22  23
ENDBRANCH   1  22
TORSDOF 12
