REMARK  Name = molecules/WCDSHELZWCOTMI-UHFFFAOYSA-N.pdb
REMARK                            x       y       z     vdW  Elec       q    Type
REMARK                         _______ _______ _______ _____ _____    ______ ____
ROOT
ATOM      1  C   LIG    1       -1.222  -0.232  -0.118  0.00  0.00    +0.080 C 
ENDROOT
BRANCH   1   2
ATOM      2  C   LIG    1       -1.632  -0.317   1.306  0.00  0.00    -0.030 A 
ATOM      3  C   LIG    1       -0.828  -0.856   2.286  0.00  0.00    +0.005 A 
ATOM      4  C   LIG    1       -1.304  -0.907   3.581  0.00  0.00    +0.000 A 
ATOM      5  C   LIG    1       -2.543  -0.437   3.885  0.00  0.00    +0.000 A 
ATOM      6  C   LIG    1       -3.375   0.109   2.926  0.00  0.00    +0.000 A 
ATOM      7  C   LIG    1       -2.879   0.151   1.640  0.00  0.00    +0.005 A 
ENDBRANCH   1   2
BRANCH   1   8
ATOM      8  C   LIG    1       -1.748   1.105  -0.574  0.00  0.00    -0.030 A 
ATOM      9  C   LIG    1       -1.330   2.209   0.120  0.00  0.00    +0.005 A 
ATOM     10  C   LIG    1       -1.779   3.458  -0.256  0.00  0.00    +0.000 A 
ATOM     11  C   LIG    1       -2.637   3.634  -1.309  0.00  0.00    +0.000 A 
ATOM     12  C   LIG    1       -3.048   2.509  -1.996  0.00  0.00    +0.000 A 
ATOM     13  C   LIG    1       -2.603   1.264  -1.624  0.00  0.00    +0.005 A 
ENDBRANCH   1   8
BRANCH   1  14
ATOM     14  C   LIG    1       -1.997  -1.317  -0.817  0.00  0.00    +0.148 C 
ATOM     15  O   LIG    1       -2.973  -1.807  -0.277  0.00  0.00    -0.296 OA
BRANCH  14  16
ATOM     16  C   LIG    1       -1.638  -1.844  -2.151  0.00  0.00    +0.072 C 
ATOM     17  C   LIG    1       -2.628  -2.862  -2.652  0.00  0.00    +0.012 C 
ENDBRANCH  14  16
ENDBRANCH   1  14
BRANCH   1  18
ATOM     18  C   LIG    1        0.201  -0.468  -0.401  0.00  0.00    +0.039 C 
BRANCH  18  19
ATOM     19  C   LIG    1        1.216   0.465   0.141  0.00  0.00    +0.086 C 
BRANCH  19  20
ATOM     20  N   LIG    1        2.516  -0.009  -0.285  0.00  0.00    -0.302 NA
ATOM     21  C   LIG    1        2.931  -1.207   0.289  0.00  0.00    +0.084 C 
ATOM     22  C   LIG    1        4.417  -1.443   0.265  0.00  0.00    +0.015 C 
ATOM     23  C   LIG    1        5.063  -0.172   0.763  0.00  0.00    +0.002 C 
ATOM     24  C   LIG    1        4.815   0.894  -0.275  0.00  0.00    +0.015 C 
ATOM     25  C   LIG    1        3.405   0.943  -0.758  0.00  0.00    +0.084 C 
ENDBRANCH  19  20
ENDBRANCH  18  19
ENDBRANCH   1  18
TORSDOF 7
