REMARK  Name = molecules/WCEJYDIWHURKJX-VGOFMYFVSA-N.pdb
REMARK                            x       y       z     vdW  Elec       q    Type
REMARK                         _______ _______ _______ _____ _____    ______ ____
ROOT
ATOM      1  N   LIG    1       -1.333   0.919   0.716  0.00  0.00    -0.209 N 
ATOM      2  C   LIG    1       -0.611   2.150   0.660  0.00  0.00    +0.244 C 
ATOM      3  O   LIG    1       -1.106   3.297   0.666  0.00  0.00    -0.273 OA
ATOM      4  C   LIG    1        0.847   1.872   0.592  0.00  0.00    +0.232 C 
ATOM      5  N   LIG    1        0.905   0.497   0.177  0.00  0.00    -0.168 N 
ATOM      6  C   LIG    1       -0.387  -0.097   0.416  0.00  0.00    +0.332 C 
ATOM      7  O   LIG    1       -0.627  -1.348   0.364  0.00  0.00    -0.250 OA
ENDROOT
BRANCH   5   8
ATOM      8  N   LIG    1        2.037  -0.137  -0.365  0.00  0.00    -0.180 NA
ATOM      9  C   LIG    1        3.175   0.225   0.077  0.00  0.00    +0.177 C 
BRANCH   9  10
ATOM     10  C   LIG    1        4.434  -0.365  -0.411  0.00  0.00    +0.150 A 
ATOM     11  O   LIG    1        5.648  -0.075  -0.034  0.00  0.00    -0.433 OA
ATOM     12  C   LIG    1        6.550  -0.784  -0.668  0.00  0.00    +0.280 A 
ATOM     13  C   LIG    1        5.849  -1.600  -1.528  0.00  0.00    +0.076 A 
ATOM     14  C   LIG    1        4.505  -1.344  -1.375  0.00  0.00    +0.053 A 
BRANCH  12  15
ATOM     15  N   LIG    1        7.974  -0.732  -0.509  0.00  0.00    +0.093 N 
ATOM     16  O   LIG    1        8.523   0.029   0.284  0.00  0.00    -0.123 OA
ATOM     17  O   LIG    1        8.751  -1.556  -1.266  0.00  0.00    -0.123 OA
ENDBRANCH  12  15
ENDBRANCH   9  10
ENDBRANCH   5   8
BRANCH   1  18
ATOM     18  C   LIG    1       -2.740   0.783   1.011  0.00  0.00    +0.205 C 
BRANCH  18  19
ATOM     19  N   LIG    1       -3.595   0.856  -0.120  0.00  0.00    -0.282 NA
ATOM     20  C   LIG    1       -4.992   0.833   0.250  0.00  0.00    +0.114 C 
ATOM     21  C   LIG    1       -5.412  -0.505   0.762  0.00  0.00    +0.175 C 
ATOM     22  O   LIG    1       -4.523  -1.518   0.507  0.00  0.00    -0.377 OA
ATOM     23  C   LIG    1       -3.911  -1.474  -0.718  0.00  0.00    +0.175 C 
ATOM     24  C   LIG    1       -3.376  -0.142  -1.131  0.00  0.00    +0.114 C 
ENDBRANCH  18  19
ENDBRANCH   1  18
TORSDOF 5
