REMARK  Name = molecules/WCJFBSYALHQBSK-UHFFFAOYSA-N.pdb
REMARK                            x       y       z     vdW  Elec       q    Type
REMARK                         _______ _______ _______ _____ _____    ______ ____
ROOT
ATOM      1  C   LIG    1       -0.401   0.084   0.041  0.00  0.00    +0.080 C 
ENDROOT
BRANCH   1   2
ATOM      2  C   LIG    1       -1.015   1.418  -0.313  0.00  0.00    -0.030 A 
ATOM      3  C   LIG    1       -2.374   1.535  -0.165  0.00  0.00    +0.005 A 
ATOM      4  C   LIG    1       -3.028   2.715  -0.463  0.00  0.00    +0.000 A 
ATOM      5  C   LIG    1       -2.310   3.801  -0.918  0.00  0.00    +0.000 A 
ATOM      6  C   LIG    1       -0.939   3.672  -1.064  0.00  0.00    +0.000 A 
ATOM      7  C   LIG    1       -0.288   2.488  -0.764  0.00  0.00    +0.005 A 
ENDBRANCH   1   2
BRANCH   1   8
ATOM      8  C   LIG    1       -0.856  -0.962  -0.902  0.00  0.00    -0.030 A 
ATOM      9  C   LIG    1       -0.738  -2.281  -0.553  0.00  0.00    +0.005 A 
ATOM     10  C   LIG    1       -1.151  -3.258  -1.443  0.00  0.00    +0.000 A 
ATOM     11  C   LIG    1       -1.675  -2.911  -2.669  0.00  0.00    +0.000 A 
ATOM     12  C   LIG    1       -1.783  -1.579  -2.998  0.00  0.00    +0.000 A 
ATOM     13  C   LIG    1       -1.380  -0.591  -2.129  0.00  0.00    +0.005 A 
ENDBRANCH   1   8
BRANCH   1  14
ATOM     14  C   LIG    1       -0.969  -0.238   1.374  0.00  0.00    +0.148 C 
ATOM     15  O   LIG    1       -1.680  -1.211   1.474  0.00  0.00    -0.296 OA
BRANCH  14  16
ATOM     16  C   LIG    1       -0.717   0.564   2.595  0.00  0.00    +0.072 C 
ATOM     17  C   LIG    1       -1.452  -0.057   3.760  0.00  0.00    +0.012 C 
ENDBRANCH  14  16
ENDBRANCH   1  14
BRANCH   1  18
ATOM     18  C   LIG    1        1.075   0.294   0.060  0.00  0.00    +0.039 C 
BRANCH  18  19
ATOM     19  C   LIG    1        1.890  -0.865   0.526  0.00  0.00    +0.085 C 
BRANCH  19  20
ATOM     20  N   LIG    1        3.300  -0.446   0.475  0.00  0.00    -0.308 NA
ATOM     21  C   LIG    1        4.161  -1.535   0.919  0.00  0.00    +0.104 C 
ATOM     22  C   LIG    1        3.675   0.070  -0.800  0.00  0.00    +0.104 C 
ENDBRANCH  19  20
ENDBRANCH  18  19
ENDBRANCH   1  18
TORSDOF 7
