REMARK  Name = molecules/WDENQIQQYWYTPO-IBGZPJMESA-N.pdb
REMARK                            x       y       z     vdW  Elec       q    Type
REMARK                         _______ _______ _______ _____ _____    ______ ____
ROOT
ATOM      1  C   LIG    1       -0.281  -1.417   0.937  0.00  0.00    +0.100 A 
ATOM      2  C   LIG    1       -1.028  -2.068   1.889  0.00  0.00    +0.114 A 
ATOM      3  C   LIG    1       -0.711  -2.727   3.057  0.00  0.00    +0.142 A 
ATOM      4  N   LIG    1       -1.661  -3.314   3.845  0.00  0.00    -0.237 NA
ATOM      5  C   LIG    1       -2.955  -3.264   3.494  0.00  0.00    +0.131 A 
ATOM      6  C   LIG    1       -3.272  -2.608   2.327  0.00  0.00    +0.113 A 
ATOM      7  N   LIG    1       -2.326  -2.017   1.531  0.00  0.00    -0.297 N 
ATOM      8  C   LIG    1       -2.428  -1.347   0.367  0.00  0.00    +0.136 A 
ATOM      9  N   LIG    1       -1.188  -0.993   0.022  0.00  0.00    -0.229 NA
ENDROOT
BRANCH   8  10
ATOM     10  C   LIG    1       -3.688  -1.094  -0.328  0.00  0.00    +0.143 C 
ATOM     11  N   LIG    1       -3.857   0.230  -0.816  0.00  0.00    -0.281 N 
ATOM     12  C   LIG    1       -3.236   1.425  -0.383  0.00  0.00    +0.292 C 
ATOM     13  O   LIG    1       -2.411   1.362   0.562  0.00  0.00    -0.260 OA
ATOM     14  C   LIG    1       -4.823   0.183  -1.897  0.00  0.00    +0.109 C 
ATOM     15  C   LIG    1       -5.046  -1.263  -2.223  0.00  0.00    +0.021 C 
ATOM     16  C   LIG    1       -3.806  -1.919  -1.616  0.00  0.00    +0.032 C 
BRANCH  12  17
ATOM     17  C   LIG    1       -3.505   2.702  -0.975  0.00  0.00    -0.008 C 
ATOM     18  C   LIG    1       -3.711   3.782  -1.473  0.00  0.00    -0.096 C 
ATOM     19  C   LIG    1       -3.938   5.106  -2.080  0.00  0.00    +0.106 C 
ENDBRANCH  12  17
ENDBRANCH   8  10
BRANCH   1  22
ATOM     20  C   LIG    1        3.302  -0.586   1.777  0.00  0.00    +0.014 A 
ATOM     21  C   LIG    1        1.922  -0.700   1.903  0.00  0.00    +0.011 A 
ATOM     22  C   LIG    1        1.168  -1.233   0.887  0.00  0.00    +0.003 A 
ATOM     23  C   LIG    1        1.856  -1.642  -0.253  0.00  0.00    +0.011 A 
ATOM     24  C   LIG    1        3.220  -1.531  -0.380  0.00  0.00    +0.014 A 
ATOM     25  C   LIG    1        3.987  -0.991   0.650  0.00  0.00    +0.037 A 
BRANCH  25  26
ATOM     26  C   LIG    1        5.431  -0.890   0.553  0.00  0.00    +0.249 C 
ATOM     27  O   LIG    1        6.114  -1.927   0.998  0.00  0.00    -0.270 OA
ATOM     28  N   LIG    1        6.236   0.133   0.062  0.00  0.00    -0.266 N 
ATOM     29  H   LIG    1        7.309  -0.052   0.107  0.00  0.00    +0.157 HD
BRANCH  28  30
ATOM     30  C   LIG    1        5.811   1.357  -0.473  0.00  0.00    +0.125 A 
ATOM     31  C   LIG    1        4.548   1.823  -0.630  0.00  0.00    +0.044 A 
ATOM     32  C   LIG    1        4.256   3.073  -1.184  0.00  0.00    +0.005 A 
ATOM     33  C   LIG    1        5.274   3.873  -1.590  0.00  0.00    +0.020 A 
ATOM     34  C   LIG    1        6.564   3.406  -1.433  0.00  0.00    +0.113 A 
ATOM     35  N   LIG    1        6.802   2.212  -0.902  0.00  0.00    -0.240 NA
ENDBRANCH  28  30
ENDBRANCH  25  26
ENDBRANCH   1  22
BRANCH   3  36
ATOM     36  N   LIG    1        0.640  -2.833   3.463  0.00  0.00    -0.341 N 
ATOM     37  H   LIG    1        1.030  -2.372   4.324  0.00  0.00    +0.144 HD
ATOM     38  H   LIG    1        1.344  -3.394   2.907  0.00  0.00    +0.144 HD
ENDBRANCH   3  36
TORSDOF 6
