REMARK  Name = molecules/WDJUZGPOPHTGOT-XUDUSOBPSA-N.pdb
REMARK                            x       y       z     vdW  Elec       q    Type
REMARK                         _______ _______ _______ _____ _____    ______ ____
ROOT
ATOM      1  C   LIG    1        0.544  -0.390   0.164  0.00  0.00    +0.253 C 
ATOM      2  C   LIG    1        1.130  -0.178   1.544  0.00  0.00    +0.095 C 
ATOM      3  C   LIG    1        2.583   0.245   1.466  0.00  0.00    +0.151 C 
ATOM      4  C   LIG    1        3.301  -0.925   0.779  0.00  0.00    +0.178 C 
ATOM      5  C   LIG    1        2.637  -1.049  -0.575  0.00  0.00    +0.150 C 
ATOM      6  C   LIG    1        3.384  -1.948  -1.509  0.00  0.00    +0.041 C 
ATOM      7  O   LIG    1        1.295  -1.386  -0.459  0.00  0.00    -0.346 OA
ENDROOT
BRANCH   3   8
ATOM      8  O   LIG    1        2.696   1.385   0.647  0.00  0.00    -0.389 OA
ATOM      9  H   LIG    1        3.060   2.125   1.190  0.00  0.00    +0.210 HD
ENDBRANCH   3   8
BRANCH   1  10
ATOM     10  O   LIG    1       -0.747  -0.792   0.173  0.00  0.00    -0.348 OA
BRANCH  10  20
ATOM     11  C   LIG    1       -8.051  -0.837   0.510  0.00  0.00    +0.075 C 
ATOM     12  C   LIG    1       -8.874  -0.572   1.726  0.00  0.00    +0.036 C 
ATOM     13  C   LIG    1       -9.618   0.733   1.500  0.00  0.00    +0.011 C 
ATOM     14  C   LIG    1       -9.100   1.246   0.145  0.00  0.00    +0.027 C 
ATOM     15  C   LIG    1       -6.612  -0.639   0.629  0.00  0.00    +0.025 C 
ATOM     16  C   LIG    1       -6.073   0.350   1.605  0.00  0.00    +0.007 C 
ATOM     17  C   LIG    1       -4.628  -0.057   1.854  0.00  0.00    +0.004 C 
ATOM     18  C   LIG    1       -3.837  -0.437   0.678  0.00  0.00    -0.002 C 
ATOM     19  C   LIG    1       -2.713   0.584   0.408  0.00  0.00    +0.035 C 
ATOM     20  C   LIG    1       -1.675  -0.025  -0.500  0.00  0.00    +0.122 C 
ATOM     21  C   LIG    1       -2.312  -0.761  -1.654  0.00  0.00    +0.032 C 
ATOM     22  C   LIG    1       -3.738  -0.283  -1.785  0.00  0.00    +0.010 C 
ATOM     23  C   LIG    1       -4.517  -0.793  -0.586  0.00  0.00    -0.026 C 
ATOM     24  C   LIG    1       -4.587  -2.318  -0.759  0.00  0.00    +0.012 C 
ATOM     25  C   LIG    1       -5.896  -0.267  -0.674  0.00  0.00    +0.001 C 
ATOM     26  C   LIG    1       -6.716  -0.714  -1.824  0.00  0.00    +0.005 C 
ATOM     27  C   LIG    1       -7.979   0.136  -1.806  0.00  0.00    +0.010 C 
ATOM     28  C   LIG    1       -8.777  -0.025  -0.543  0.00  0.00    +0.004 C 
ATOM     29  C   LIG    1      -10.043  -0.759  -0.899  0.00  0.00    +0.014 C 
BRANCH  14  30
ATOM     30  C   LIG    1      -10.084   2.114  -0.528  0.00  0.00    -0.022 C 
ATOM     31  C   LIG    1       -9.767   3.392  -0.828  0.00  0.00    +0.094 C 
ATOM     32  C   LIG    1      -10.887   4.048  -1.479  0.00  0.00    +0.332 C 
ATOM     33  O   LIG    1      -11.877   3.116  -1.552  0.00  0.00    -0.457 OA
ATOM     34  O   LIG    1      -10.989   5.224  -1.909  0.00  0.00    -0.246 OA
ATOM     35  C   LIG    1      -11.446   1.889  -0.991  0.00  0.00    +0.264 C 
ENDBRANCH  14  30
BRANCH  11  36
ATOM     36  O   LIG    1       -8.261  -2.190   0.141  0.00  0.00    -0.388 OA
ATOM     37  H   LIG    1       -7.788  -2.718   0.833  0.00  0.00    +0.210 HD
ENDBRANCH  11  36
ENDBRANCH  10  20
ENDBRANCH   1  10
BRANCH   4  38
ATOM     38  O   LIG    1        4.638  -0.656   0.688  0.00  0.00    -0.343 OA
BRANCH  38  39
ATOM     39  C   LIG    1        5.424  -1.560   1.388  0.00  0.00    +0.254 C 
ATOM     40  O   LIG    1        6.046  -0.919   2.443  0.00  0.00    -0.346 OA
ATOM     41  C   LIG    1        6.997   0.011   2.051  0.00  0.00    +0.150 C 
ATOM     42  C   LIG    1        6.372   1.367   1.768  0.00  0.00    +0.041 C 
ATOM     43  C   LIG    1        7.858  -0.477   0.918  0.00  0.00    +0.178 C 
ATOM     44  C   LIG    1        7.778  -2.013   0.964  0.00  0.00    +0.151 C 
ATOM     45  C   LIG    1        6.349  -2.338   0.509  0.00  0.00    +0.095 C 
BRANCH  44  46
ATOM     46  O   LIG    1        7.868  -2.446   2.302  0.00  0.00    -0.389 OA
ATOM     47  H   LIG    1        7.794  -3.415   2.287  0.00  0.00    +0.210 HD
ENDBRANCH  44  46
BRANCH  43  48
ATOM     48  O   LIG    1        9.180  -0.161   1.031  0.00  0.00    -0.343 OA
BRANCH  48  49
ATOM     49  C   LIG    1        9.737   0.460  -0.075  0.00  0.00    +0.254 C 
ATOM     50  C   LIG    1       10.165   1.867   0.155  0.00  0.00    +0.095 C 
ATOM     51  C   LIG    1       11.047   2.268  -1.013  0.00  0.00    +0.150 C 
ATOM     52  C   LIG    1       12.285   1.425  -1.096  0.00  0.00    +0.172 C 
ATOM     53  C   LIG    1       11.971   0.037  -0.593  0.00  0.00    +0.149 C 
ATOM     54  C   LIG    1       12.368  -0.034   0.863  0.00  0.00    +0.041 C 
ATOM     55  O   LIG    1       10.662  -0.339  -0.724  0.00  0.00    -0.346 OA
BRANCH  52  56
ATOM     56  O   LIG    1       12.825   1.402  -2.381  0.00  0.00    -0.387 OA
ATOM     57  H   LIG    1       12.255   0.779  -2.918  0.00  0.00    +0.210 HD
ENDBRANCH  52  56
BRANCH  51  58
ATOM     58  O   LIG    1       10.319   2.253  -2.204  0.00  0.00    -0.389 OA
ATOM     59  H   LIG    1       10.944   2.556  -2.915  0.00  0.00    +0.210 HD
ENDBRANCH  51  58
ENDBRANCH  48  49
ENDBRANCH  43  48
ENDBRANCH  38  39
ENDBRANCH   4  38
TORSDOF 12
