REMARK  Name = molecules/WDLWHQDACQUCJR-ZAMMOSSLSA-N.pdb
REMARK                            x       y       z     vdW  Elec       q    Type
REMARK                         _______ _______ _______ _____ _____    ______ ____
ROOT
ATOM      1  CA  LIG    1       -2.828  -0.949  -0.038  0.00  0.00    +0.126 C 
ATOM      2  N   LIG    1       -1.639  -1.358   0.662  0.00  0.00    -0.249 N 
ATOM      3  C   LIG    1       -1.180  -0.882   1.939  0.00  0.00    +0.169 C 
ATOM      4  S   LIG    1       -1.847   0.785   2.095  0.00  0.00    -0.131 S 
ATOM      5  C   LIG    1       -3.629   0.327   1.899  0.00  0.00    +0.108 C 
ATOM      6  CA  LIG    1        0.207  -1.084   1.498  0.00  0.00    +0.191 C 
ATOM      7  C   LIG    1       -0.484  -2.155   0.669  0.00  0.00    +0.244 C 
ATOM      8  O   LIG    1       -0.047  -3.248   0.249  0.00  0.00    -0.273 OA
ATOM      9  C   LIG    1       -3.748  -0.192   0.500  0.00  0.00    -0.009 C 
ENDROOT
BRANCH   6  10
ATOM     10  N   LIG    1        0.853  -0.080   0.733  0.00  0.00    -0.300 N 
ATOM     11  C   LIG    1        2.197   0.271   1.004  0.00  0.00    +0.235 C 
ATOM     12  O   LIG    1        2.855  -0.293   1.927  0.00  0.00    -0.274 OA
ATOM     13  H   LIG    1        0.347   0.403  -0.030  0.00  0.00    +0.150 HD
BRANCH  11  14
ATOM     14  CA  LIG    1        2.903   1.334   0.203  0.00  0.00    +0.168 C 
BRANCH  14  15
ATOM     15  C   LIG    1        4.070   0.771  -0.477  0.00  0.00    -0.022 A 
ATOM     16  C   LIG    1        5.356   1.054  -0.025  0.00  0.00    +0.009 A 
ATOM     17  C   LIG    1        6.481   0.558  -0.619  0.00  0.00    +0.046 A 
ATOM     18  C   LIG    1        6.377  -0.266  -1.720  0.00  0.00    +0.117 A 
ATOM     19  C   LIG    1        5.115  -0.563  -2.189  0.00  0.00    +0.046 A 
ATOM     20  C   LIG    1        3.985  -0.055  -1.580  0.00  0.00    +0.009 A 
BRANCH  18  21
ATOM     21  O   LIG    1        7.517  -0.784  -2.343  0.00  0.00    -0.507 OA
ATOM     22  H   LIG    1        7.970  -0.266  -3.107  0.00  0.00    +0.292 HD
ENDBRANCH  18  21
ENDBRANCH  14  15
BRANCH  14  23
ATOM     23  N   LIG    1        1.982   1.839  -0.784  0.00  0.00    -0.316 NA
ATOM     24  H1  LIG    1        2.372   2.676  -1.264  0.00  0.00    +0.119 HD
ATOM     25  H2  LIG    1        1.670   1.096  -1.419  0.00  0.00    +0.119 HD
ENDBRANCH  14  23
ENDBRANCH  11  14
ENDBRANCH   6  10
BRANCH   9  26
ATOM     26  C   LIG    1       -4.942   0.220  -0.179  0.00  0.00    +0.002 C 
ATOM     27  C   LIG    1       -5.907   0.982   0.344  0.00  0.00    -0.030 C 
ATOM     28  C   LIG    1       -7.127   1.360  -0.462  0.00  0.00    +0.035 C 
ENDBRANCH   9  26
BRANCH   1  29
ATOM     29  C   LIG    1       -2.972  -1.435  -1.414  0.00  0.00    +0.352 C 
ATOM     30  O   LIG    1       -3.934  -1.170  -2.121  0.00  0.00    -0.244 OA
BRANCH  29  31
ATOM     31  OXT LIG    1       -1.957  -2.257  -1.981  0.00  0.00    -0.476 OA
ATOM     32  HXT LIG    1       -2.272  -3.043  -2.550  0.00  0.00    +0.295 HD
ENDBRANCH  29  31
ENDBRANCH   1  29
TORSDOF 8
