REMARK  Name = molecules/WDRYRZXSPDWGEB-UHFFFAOYSA-N.pdb
REMARK                            x       y       z     vdW  Elec       q    Type
REMARK                         _______ _______ _______ _____ _____    ______ ____
ROOT
ATOM      1  N   LIG    1        0.518  -0.650  -0.706  0.00  0.00    -0.259 N 
ATOM      2  N   LIG    1        1.038  -1.627  -0.010  0.00  0.00    -0.163 NA
ATOM      3  C   LIG    1        2.079  -1.203   0.726  0.00  0.00    +0.177 A 
ATOM      4  C   LIG    1        2.204   0.144   0.456  0.00  0.00    +0.034 A 
ATOM      5  C   LIG    1        3.088   1.130   0.908  0.00  0.00    +0.012 A 
ATOM      6  C   LIG    1        2.958   2.425   0.443  0.00  0.00    +0.001 A 
ATOM      7  C   LIG    1        1.979   2.775  -0.456  0.00  0.00    +0.002 A 
ATOM      8  C   LIG    1        1.128   1.783  -0.879  0.00  0.00    +0.028 A 
ATOM      9  C   LIG    1        1.222   0.464  -0.437  0.00  0.00    +0.070 A 
ENDROOT
BRANCH   3  10
ATOM     10  C   LIG    1        2.928  -1.967   1.634  0.00  0.00    +0.358 C 
ATOM     11  O   LIG    1        3.869  -1.410   2.250  0.00  0.00    -0.243 OA
BRANCH  10  12
ATOM     12  O   LIG    1        2.660  -3.316   1.790  0.00  0.00    -0.476 OA
ATOM     13  H   LIG    1        2.835  -3.975   1.072  0.00  0.00    +0.295 HD
ENDBRANCH  10  12
ENDBRANCH   3  10
BRANCH   1  14
ATOM     14  C   LIG    1       -0.617  -0.711  -1.619  0.00  0.00    +0.180 C 
BRANCH  14  15
ATOM     15  C   LIG    1       -1.886  -0.445  -0.892  0.00  0.00    -0.008 A 
ATOM     16  C   LIG    1       -2.465  -1.408  -0.080  0.00  0.00    +0.047 A 
ATOM     17  C   LIG    1       -3.644  -1.145   0.588  0.00  0.00    +0.040 A 
ATOM     18  C   LIG    1       -4.277   0.071   0.469  0.00  0.00    +0.042 A 
ATOM     19 CL   LIG    1       -5.789   0.409   1.326  0.00  0.00    -0.083 Cl
ATOM     20  C   LIG    1       -3.703   1.030  -0.339  0.00  0.00    +0.020 A 
ATOM     21 CL   LIG    1       -1.690  -2.978   0.101  0.00  0.00    -0.083 Cl
ATOM     22  C   LIG    1       -2.528   0.771  -1.004  0.00  0.00    +0.008 A 
ENDBRANCH  14  15
ENDBRANCH   1  14
TORSDOF 4
