REMARK  Name = molecules/WDVSHHCDHLJJJR-UHFFFAOYSA-N.pdb
REMARK                            x       y       z     vdW  Elec       q    Type
REMARK                         _______ _______ _______ _____ _____    ______ ____
ROOT
ATOM      1  C   LIG    1       -3.569   0.548  -0.013  0.00  0.00    +0.027 A 
ATOM      2  C   LIG    1       -3.562  -0.729   0.553  0.00  0.00    +0.023 A 
ATOM      3  C   LIG    1       -2.376  -1.388   0.792  0.00  0.00    +0.012 A 
ATOM      4  C   LIG    1       -1.161  -0.803   0.478  0.00  0.00    +0.001 A 
ATOM      5  C   LIG    1        0.033  -1.461   0.717  0.00  0.00    +0.020 A 
ATOM      6  C   LIG    1        1.217  -0.835   0.386  0.00  0.00    +0.001 A 
ATOM      7  C   LIG    1        2.426  -1.482   0.619  0.00  0.00    +0.012 A 
ATOM      8  C   LIG    1        3.573  -0.803   0.266  0.00  0.00    +0.023 A 
ATOM      9  C   LIG    1        3.552   0.456  -0.291  0.00  0.00    +0.027 A 
ATOM     10  C   LIG    1        2.339   1.044  -0.498  0.00  0.00    +0.051 A 
ATOM     11  C   LIG    1        1.135   0.425  -0.169  0.00  0.00    +0.073 A 
ATOM     12  N   LIG    1       -0.030   1.056  -0.397  0.00  0.00    -0.247 NA
ATOM     13  C   LIG    1       -1.192   0.474  -0.087  0.00  0.00    +0.073 A 
ATOM     14  C   LIG    1       -2.371   1.147  -0.332  0.00  0.00    +0.051 A 
ENDROOT
BRANCH   1  15
ATOM     15  N   LIG    1       -4.786   1.210  -0.252  0.00  0.00    -0.358 N 
ATOM     16  H   LIG    1       -4.947   2.194   0.117  0.00  0.00    +0.142 HD
ATOM     17  H   LIG    1       -5.539   0.732  -0.797  0.00  0.00    +0.142 HD
ENDBRANCH   1  15
BRANCH   9  18
ATOM     18  N   LIG    1        4.769   1.105  -0.634  0.00  0.00    -0.358 N 
ATOM     19  H   LIG    1        4.969   2.034  -0.161  0.00  0.00    +0.142 HD
ATOM     20  H   LIG    1        5.439   0.702  -1.313  0.00  0.00    +0.142 HD
ENDBRANCH   9  18
TORSDOF 2
