REMARK  Name = molecules/WDZVGELJXXEGPV-YIXHJXPBSA-N.pdb
REMARK                            x       y       z     vdW  Elec       q    Type
REMARK                         _______ _______ _______ _____ _____    ______ ____
ROOT
ATOM      1  N   LIG    1        0.990   0.373   0.939  0.00  0.00    -0.119 NA
ATOM      2  C   LIG    1        0.298  -0.356   0.165  0.00  0.00    +0.159 C 
ENDROOT
BRANCH   2   3
ATOM      3  C   LIG    1       -1.167  -0.227   0.046  0.00  0.00    +0.033 A 
ATOM      4  C   LIG    1       -1.860   0.710   0.785  0.00  0.00    +0.051 A 
ATOM      5 CL   LIG    1       -0.924   1.725   1.857  0.00  0.00    -0.083 Cl
ATOM      6  C   LIG    1       -3.226   0.868   0.707  0.00  0.00    +0.021 A 
ATOM      7  C   LIG    1       -3.941   0.066  -0.137  0.00  0.00    +0.003 A 
ATOM      8  C   LIG    1       -3.281  -0.897  -0.904  0.00  0.00    +0.021 A 
ATOM      9  C   LIG    1       -1.896  -1.026  -0.797  0.00  0.00    +0.051 A 
ATOM     10 CL   LIG    1       -1.103  -2.235  -1.766  0.00  0.00    -0.083 Cl
ENDBRANCH   2   3
BRANCH   1  11
ATOM     11  N   LIG    1        2.376   0.296   1.093  0.00  0.00    -0.155 N 
ATOM     12  H   LIG    1        2.756   0.458   2.068  0.00  0.00    +0.292 HD
BRANCH  11  14
ATOM     13  N   LIG    1        3.602   0.990  -0.901  0.00  0.00    -0.288 N 
ATOM     14  C   LIG    1        3.292   0.025   0.076  0.00  0.00    +0.400 C 
ATOM     15  H   LIG    1        3.732   1.995  -0.752  0.00  0.00    +0.255 HD
ATOM     16  H   LIG    1        3.712   0.637  -1.893  0.00  0.00    +0.255 HD
BRANCH  14  17
ATOM     17  N   LIG    1        3.856  -1.158   0.056  0.00  0.00    -0.128 NA
ATOM     18  H   LIG    1        4.547  -1.384  -0.699  0.00  0.00    +0.306 HD
ENDBRANCH  14  17
ENDBRANCH  11  14
ENDBRANCH   1  11
TORSDOF 4
