REMARK  Name = molecules/WEAJZXNPAWBCOA-INIZCTEOSA-N.pdb
REMARK                            x       y       z     vdW  Elec       q    Type
REMARK                         _______ _______ _______ _____ _____    ______ ____
ROOT
ATOM      1  C   LIG    1       -1.029  -2.202   1.123  0.00  0.00    +0.220 A 
ATOM      2  N   LIG    1       -1.561  -1.101   1.712  0.00  0.00    -0.222 NA
ATOM      3  C   LIG    1       -1.903   0.062   1.015  0.00  0.00    +0.131 A 
ATOM      4  C   LIG    1       -1.681   0.074  -0.325  0.00  0.00    +0.094 A 
ATOM      5  C   LIG    1       -1.148  -0.997  -0.968  0.00  0.00    +0.136 A 
ATOM      6  N   LIG    1       -0.849  -2.070  -0.272  0.00  0.00    -0.199 NA
ENDROOT
BRANCH   1  11
ATOM      7  C   LIG    1        0.007  -3.652   2.978  0.00  0.00    +0.102 C 
ATOM      8  C   LIG    1       -0.301  -5.064   3.349  0.00  0.00    +0.026 C 
ATOM      9  C   LIG    1       -1.122  -5.598   2.188  0.00  0.00    +0.021 C 
ATOM     10  C   LIG    1       -0.743  -4.694   1.055  0.00  0.00    +0.108 C 
ATOM     11  N   LIG    1       -0.629  -3.387   1.679  0.00  0.00    -0.294 N 
BRANCH   7  12
ATOM     12  C   LIG    1        1.490  -3.394   2.801  0.00  0.00    +0.178 C 
BRANCH  12  13
ATOM     13  O   LIG    1        2.058  -4.198   1.840  0.00  0.00    -0.393 OA
ATOM     14  H   LIG    1        2.138  -5.141   2.137  0.00  0.00    +0.209 HD
ENDBRANCH  12  13
ENDBRANCH   7  12
ENDBRANCH   1  11
BRANCH   4  15
ATOM     15  C   LIG    1       -2.168   1.215  -1.187  0.00  0.00    +0.249 C 
ATOM     16  N   LIG    1       -2.111   2.425  -0.507  0.00  0.00    -0.304 N 
ATOM     17  H   LIG    1       -2.835   3.036  -1.547  0.00  0.00    +0.149 HD
ATOM     18  O   LIG    1       -2.517   0.987  -2.304  0.00  0.00    -0.270 OA
BRANCH  16  19
ATOM     19  C   LIG    1       -2.063   3.590   0.132  0.00  0.00    +0.180 C 
BRANCH  19  20
ATOM     20  C   LIG    1       -1.570   4.649  -0.825  0.00  0.00    +0.146 A 
ATOM     21  N   LIG    1       -0.283   5.124  -0.818  0.00  0.00    -0.239 NA
ATOM     22  C   LIG    1        0.169   5.978  -1.764  0.00  0.00    +0.114 A 
ATOM     23  C   LIG    1       -0.713   6.386  -2.783  0.00  0.00    +0.039 A 
ATOM     24  C   LIG    1       -1.962   5.940  -2.817  0.00  0.00    +0.114 A 
ATOM     25  N   LIG    1       -2.378   5.071  -1.824  0.00  0.00    -0.239 NA
ENDBRANCH  19  20
ENDBRANCH  16  19
ENDBRANCH   4  15
BRANCH   5  26
ATOM     26  N   LIG    1       -0.916  -1.000  -2.365  0.00  0.00    -0.324 N 
ATOM     27  H   LIG    1       -1.361  -0.624  -3.116  0.00  0.00    +0.148 HD
BRANCH  26  28
ATOM     28  C   LIG    1        0.373  -1.827  -2.583  0.00  0.00    +0.138 C 
BRANCH  28  29
ATOM     29  C   LIG    1        1.282  -0.762  -1.908  0.00  0.00    -0.029 A 
ATOM     30  C   LIG    1        1.646  -0.814  -0.600  0.00  0.00    +0.009 A 
ATOM     31  C   LIG    1        2.204   0.389   0.041  0.00  0.00    +0.047 A 
ATOM     32  C   LIG    1        2.332   1.471  -0.709  0.00  0.00    +0.138 A 
ATOM     33  C   LIG    1        1.985   1.577  -2.047  0.00  0.00    +0.083 A 
ATOM     34 CL   LIG    1        2.200   3.096  -2.873  0.00  0.00    -0.080 Cl
ATOM     35  C   LIG    1        1.468   0.457  -2.607  0.00  0.00    +0.028 A 
BRANCH  32  36
ATOM     36  O   LIG    1        2.859   2.744  -0.149  0.00  0.00    -0.494 OA
ATOM     37  C   LIG    1        3.213   2.749   1.191  0.00  0.00    +0.277 C 
ENDBRANCH  32  36
ENDBRANCH  28  29
ENDBRANCH  26  28
ENDBRANCH   5  26
TORSDOF 10
