REMARK  Name = molecules/WEQAYVWKMWHEJO-LLVKDONJSA-N.pdb
REMARK                            x       y       z     vdW  Elec       q    Type
REMARK                         _______ _______ _______ _____ _____    ______ ____
ROOT
ATOM      1  O   LIG    1        0.038  -2.321   0.773  0.00  0.00    -0.172 OA
ATOM      2  S   LIG    1       -0.886  -1.763  -0.270  0.00  0.00    -0.007 S 
ATOM      3  C   LIG    1       -2.566  -1.829   0.280  0.00  0.00    +0.177 C 
ATOM      4  C   LIG    1       -2.964  -0.576   1.027  0.00  0.00    +0.118 C 
ATOM      5  C   LIG    1       -2.519   0.672   0.409  0.00  0.00    +0.219 C 
ATOM      6  O   LIG    1       -3.375   1.616   0.280  0.00  0.00    -0.276 OA
ATOM      7  N   LIG    1       -1.203   0.904  -0.055  0.00  0.00    -0.279 N 
ATOM      8  C   LIG    1       -0.597   2.220   0.122  0.00  0.00    +0.134 C 
ATOM      9  C   LIG    1       -0.434  -0.110  -0.700  0.00  0.00    +0.249 C 
ATOM     10  O   LIG    1       -0.740  -2.629  -1.500  0.00  0.00    -0.172 OA
ENDROOT
BRANCH   9  11
ATOM     11  C   LIG    1        1.024   0.026  -0.453  0.00  0.00    -0.006 A 
ATOM     12  C   LIG    1        1.556   0.293   0.793  0.00  0.00    +0.008 A 
ATOM     13  C   LIG    1        2.933   0.410   0.974  0.00  0.00    +0.020 A 
ATOM     14  C   LIG    1        3.791   0.260  -0.103  0.00  0.00    +0.041 A 
ATOM     15 CL   LIG    1        5.537   0.403   0.096  0.00  0.00    -0.084 Cl
ATOM     16  C   LIG    1        3.276  -0.004  -1.341  0.00  0.00    +0.020 A 
ATOM     17  C   LIG    1        1.909  -0.116  -1.497  0.00  0.00    +0.008 A 
ENDBRANCH   9  11
TORSDOF 1
