REMARK  Name = molecules/WEUCDJCFJHYFRL-IBGZPJMESA-N.pdb
REMARK                            x       y       z     vdW  Elec       q    Type
REMARK                         _______ _______ _______ _____ _____    ______ ____
ROOT
ATOM      1  C   LIG    1        0.792   0.205  -0.704  0.00  0.00    +0.117 C 
ENDROOT
BRANCH   1   2
ATOM      2  N   LIG    1       -0.443  -0.279  -0.116  0.00  0.00    -0.290 NA
ATOM      3  C   LIG    1       -1.454   0.715  -0.073  0.00  0.00    +0.100 C 
ATOM      4  C   LIG    1       -2.764   0.296  -0.696  0.00  0.00    +0.099 C 
ATOM      5  N   LIG    1       -3.353  -0.852  -0.092  0.00  0.00    -0.304 NA
ATOM      6  C   LIG    1       -2.646  -1.383   1.029  0.00  0.00    +0.085 C 
ATOM      7  C   LIG    1       -1.481  -2.281   0.594  0.00  0.00    +0.031 C 
ATOM      8  C   LIG    1       -4.731  -0.592   0.346  0.00  0.00    +0.104 C 
ATOM      9  C   LIG    1       -0.854  -1.551  -0.598  0.00  0.00    +0.086 C 
ENDBRANCH   1   2
BRANCH   1  11
ATOM     10  C   LIG    1        2.818  -1.068  -1.437  0.00  0.00    +0.007 A 
ATOM     11  C   LIG    1        1.926  -0.713  -0.439  0.00  0.00    -0.026 A 
ATOM     12  C   LIG    1        2.166  -1.266   0.803  0.00  0.00    +0.007 A 
ATOM     13  C   LIG    1        3.216  -2.121   1.065  0.00  0.00    +0.020 A 
ATOM     14  C   LIG    1        4.069  -2.438   0.036  0.00  0.00    +0.041 A 
ATOM     15 CL   LIG    1        5.408  -3.537   0.396  0.00  0.00    -0.084 Cl
ATOM     16  C   LIG    1        3.883  -1.919  -1.223  0.00  0.00    +0.020 A 
ENDBRANCH   1  11
BRANCH   1  17
ATOM     17  C   LIG    1        1.062   1.596  -0.311  0.00  0.00    -0.026 A 
ATOM     18  C   LIG    1        0.903   1.974   1.004  0.00  0.00    +0.005 A 
ATOM     19  C   LIG    1        1.142   3.273   1.438  0.00  0.00    +0.000 A 
ATOM     20  C   LIG    1        1.559   4.215   0.490  0.00  0.00    +0.000 A 
ATOM     21  C   LIG    1        1.719   3.840  -0.828  0.00  0.00    +0.000 A 
ATOM     22  C   LIG    1        1.474   2.531  -1.243  0.00  0.00    +0.005 A 
ENDBRANCH   1  17
TORSDOF 3
