REMARK  Name = molecules/WEVJJMPVVFNAHZ-RRKCRQDMSA-N.pdb
REMARK                            x       y       z     vdW  Elec       q    Type
REMARK                         _______ _______ _______ _____ _____    ______ ____
ROOT
ATOM      1  O   LIG    1        0.903   1.988  -1.047  0.00  0.00    -0.244 OA
ATOM      2  C   LIG    1        1.507   0.978  -0.589  0.00  0.00    +0.352 A 
ATOM      3  N   LIG    1        2.787   1.074  -0.204  0.00  0.00    -0.177 NA
ATOM      4  C   LIG    1        3.469   0.013   0.293  0.00  0.00    +0.136 A 
ATOM      5  C   LIG    1        2.845  -1.218   0.414  0.00  0.00    +0.069 A 
ATOM      6  I   LIG    1        3.881  -2.877   1.180  0.00  0.00    -0.039 I 
ATOM      7  C   LIG    1        1.535  -1.296   0.014  0.00  0.00    +0.111 A 
ATOM      8  N   LIG    1        0.897  -0.207  -0.476  0.00  0.00    -0.272 N 
ENDROOT
BRANCH   8   9
ATOM      9  C1* LIG    1       -0.468  -0.342  -0.879  0.00  0.00    +0.226 C 
ATOM     10  C2* LIG    1       -1.302  -1.129   0.129  0.00  0.00    +0.088 C 
ATOM     11  C3* LIG    1       -2.691  -0.607  -0.263  0.00  0.00    +0.150 C 
ATOM     12  C4* LIG    1       -2.341   0.838  -0.525  0.00  0.00    +0.175 C 
ATOM     13  O4* LIG    1       -1.107   0.837  -1.114  0.00  0.00    -0.348 OA
BRANCH  11  14
ATOM     14  O3* LIG    1       -3.022  -1.229  -1.451  0.00  0.00    -0.389 OA
ATOM     15  H3* LIG    1       -2.723  -2.185  -1.423  0.00  0.00    +0.210 HD
ENDBRANCH  11  14
BRANCH  12  16
ATOM     16  C5* LIG    1       -2.392   1.636   0.766  0.00  0.00    +0.190 C 
BRANCH  16  17
ATOM     17  O5* LIG    1       -2.060   2.948   0.544  0.00  0.00    -0.392 OA
ATOM     18  H5* LIG    1       -1.696   3.079  -0.363  0.00  0.00    +0.210 HD
ENDBRANCH  16  17
ENDBRANCH  12  16
ENDBRANCH   8   9
BRANCH   4  19
ATOM     19  N   LIG    1        4.830   0.157   0.692  0.00  0.00    -0.342 N 
ATOM     20  H   LIG    1        5.138   1.027   1.166  0.00  0.00    +0.144 HD
ATOM     21  H   LIG    1        5.520  -0.608   0.512  0.00  0.00    +0.144 HD
ENDBRANCH   4  19
TORSDOF 5
