REMARK  Name = molecules/WEXRUCMBJFQVBZ-SSDOTTSWSA-N.pdb
REMARK                            x       y       z     vdW  Elec       q    Type
REMARK                         _______ _______ _______ _____ _____    ______ ____
ROOT
ATOM      1  C   LIG    1       -0.828  -0.198  -0.215  0.00  0.00    +0.126 C 
ATOM      2  C   LIG    1       -1.931   0.799  -0.062  0.00  0.00    +0.236 C 
ATOM      3  O   LIG    1       -1.749   1.925   0.418  0.00  0.00    -0.274 OA
ATOM      4  N   LIG    1       -3.224   0.412  -0.490  0.00  0.00    -0.239 N 
ATOM      5  H   LIG    1       -4.102   0.832  -0.069  0.00  0.00    +0.159 HD
ATOM      6  C   LIG    1       -3.426  -0.565  -1.510  0.00  0.00    +0.312 C 
ATOM      7  O   LIG    1       -4.556  -0.928  -1.908  0.00  0.00    -0.252 OA
ATOM      8  N   LIG    1       -2.220  -1.115  -2.059  0.00  0.00    -0.239 N 
ATOM      9  H   LIG    1       -2.301  -1.835  -2.809  0.00  0.00    +0.159 HD
ATOM     10  C   LIG    1       -0.936  -0.701  -1.606  0.00  0.00    +0.236 C 
ATOM     11  O   LIG    1        0.018  -0.792  -2.417  0.00  0.00    -0.274 OA
ENDROOT
BRANCH   1  12
ATOM     12  C   LIG    1        0.509   0.411   0.107  0.00  0.00    +0.010 C 
ATOM     13  C   LIG    1        0.740   1.706  -0.611  0.00  0.00    +0.009 C 
BRANCH  12  14
ATOM     14  C   LIG    1        1.643  -0.549   0.068  0.00  0.00    +0.004 C 
BRANCH  14  15
ATOM     15  C   LIG    1        2.930  -0.121   0.674  0.00  0.00    -0.003 C 
ATOM     16  C   LIG    1        3.619   1.057   0.099  0.00  0.00    +0.004 C 
ENDBRANCH  14  15
ENDBRANCH  12  14
ENDBRANCH   1  12
BRANCH   1  17
ATOM     17  C   LIG    1       -1.148  -1.294   0.768  0.00  0.00    +0.022 C 
ATOM     18  C   LIG    1       -1.192  -0.814   2.188  0.00  0.00    +0.005 C 
ENDBRANCH   1  17
TORSDOF 4
