REMARK  Name = molecules/WEYVCQFUGFRXOM-UHFFFAOYSA-N.pdb
REMARK                            x       y       z     vdW  Elec       q    Type
REMARK                         _______ _______ _______ _____ _____    ______ ____
ROOT
ATOM      1  N   LIG    1       -2.247   0.520   0.429  0.00  0.00    -0.313 N 
ATOM      2  C   LIG    1       -2.638  -0.756   0.912  0.00  0.00    +0.045 A 
ATOM      3  C   LIG    1       -2.157  -1.208   2.126  0.00  0.00    +0.024 A 
ATOM      4  C   LIG    1       -2.519  -2.449   2.666  0.00  0.00    +0.002 A 
ATOM      5  C   LIG    1       -3.382  -3.291   2.009  0.00  0.00    +0.001 A 
ATOM      6  C   LIG    1       -3.860  -2.841   0.802  0.00  0.00    +0.017 A 
ATOM      7  C   LIG    1       -3.500  -1.621   0.279  0.00  0.00    +0.034 A 
ATOM      8  S   LIG    1       -4.211  -1.168  -1.284  0.00  0.00    -0.089 S 
ATOM      9  C   LIG    1       -3.591   0.450  -1.662  0.00  0.00    +0.020 C 
ATOM     10  C   LIG    1       -3.981   1.072  -2.823  0.00  0.00    +0.013 C 
ATOM     11  C   LIG    1       -3.558   2.307  -3.219  0.00  0.00    +0.001 C 
ATOM     12  C   LIG    1       -2.681   2.943  -2.373  0.00  0.00    -0.002 C 
ATOM     13  C   LIG    1       -2.266   2.343  -1.189  0.00  0.00    +0.007 C 
ATOM     14  C   LIG    1       -2.709   1.097  -0.814  0.00  0.00    +0.115 C 
ENDROOT
BRANCH   1  15
ATOM     15  C   LIG    1       -1.304   1.290   1.183  0.00  0.00    +0.108 C 
BRANCH  15  16
ATOM     16  C   LIG    1        0.091   1.025   0.696  0.00  0.00    +0.034 C 
BRANCH  16  17
ATOM     17  C   LIG    1        0.597  -0.361   0.764  0.00  0.00    +0.086 C 
BRANCH  17  22
ATOM     18  C   LIG    1        5.819  -0.006  -0.743  0.00  0.00    +0.105 C 
ATOM     19  N   LIG    1        4.520  -0.663  -0.632  0.00  0.00    -0.303 NA
ATOM     20  C   LIG    1        4.221  -0.760   0.771  0.00  0.00    +0.099 C 
ATOM     21  C   LIG    1        2.960   0.052   1.099  0.00  0.00    +0.100 C 
ATOM     22  N   LIG    1        1.936  -0.517   0.258  0.00  0.00    -0.300 NA
ATOM     23  C   LIG    1        2.134  -0.336  -1.122  0.00  0.00    +0.100 C 
ATOM     24  C   LIG    1        3.570   0.058  -1.413  0.00  0.00    +0.099 C 
ENDBRANCH  17  22
ENDBRANCH  16  17
ENDBRANCH  15  16
ENDBRANCH   1  15
TORSDOF 4
