REMARK  Name = molecules/WFLSCFISQHLEED-GDBMZVCRSA-N.pdb
REMARK                            x       y       z     vdW  Elec       q    Type
REMARK                         _______ _______ _______ _____ _____    ______ ____
ROOT
ATOM      1  C   LIG    1       -0.607  -0.455  -0.310  0.00  0.00    +0.086 C 
ENDROOT
BRANCH   1   2
ATOM      2  C   LIG    1       -1.469   0.694   0.112  0.00  0.00    -0.027 A 
ATOM      3  C   LIG    1       -2.134   0.706   1.316  0.00  0.00    +0.005 A 
ATOM      4  C   LIG    1       -2.952   1.774   1.682  0.00  0.00    +0.000 A 
ATOM      5  C   LIG    1       -3.130   2.844   0.865  0.00  0.00    +0.000 A 
ATOM      6  C   LIG    1       -2.475   2.860  -0.352  0.00  0.00    +0.000 A 
ATOM      7  C   LIG    1       -1.661   1.791  -0.700  0.00  0.00    +0.005 A 
ENDBRANCH   1   2
BRANCH   1   8
ATOM      8  C   LIG    1       -1.433  -1.752  -0.132  0.00  0.00    +0.007 C 
ATOM      9  C   LIG    1       -0.643  -2.931  -0.566  0.00  0.00    +0.009 C 
ATOM     10  C   LIG    1       -2.790  -1.648  -0.728  0.00  0.00    +0.009 C 
ENDBRANCH   1   8
BRANCH   1  11
ATOM     11  C   LIG    1       -0.291  -0.321  -1.711  0.00  0.00    +0.074 C 
ATOM     12  N   LIG    1       -0.019  -0.198  -2.824  0.00  0.00    -0.196 NA
ENDBRANCH   1  11
BRANCH   1  13
ATOM     13  C   LIG    1        0.579  -0.685   0.550  0.00  0.00    +0.045 C 
BRANCH  13  14
ATOM     14  C   LIG    1        1.621   0.344   0.620  0.00  0.00    +0.055 C 
ATOM     15  C   LIG    1        2.724  -0.183   1.553  0.00  0.00    +0.024 C 
BRANCH  14  16
ATOM     16  N   LIG    1        2.266   0.676  -0.610  0.00  0.00    -0.306 NA
ATOM     17  C   LIG    1        3.360   1.596  -0.276  0.00  0.00    +0.104 C 
ATOM     18  C   LIG    1        2.896  -0.454  -1.257  0.00  0.00    +0.104 C 
ENDBRANCH  14  16
ENDBRANCH  13  14
ENDBRANCH   1  13
TORSDOF 6
