REMARK  Name = molecules/WFPIAZLQTJBIFN-DVZOWYKESA-N.pdb
REMARK                            x       y       z     vdW  Elec       q    Type
REMARK                         _______ _______ _______ _____ _____    ______ ____
ROOT
ATOM      1  C   LIG    1       -2.438   0.126   0.611  0.00  0.00    -0.027 C 
ATOM      2  C   LIG    1       -3.442  -0.969   0.456  0.00  0.00    -0.007 A 
ATOM      3  C   LIG    1       -3.140  -2.254   0.916  0.00  0.00    +0.009 A 
ATOM      4  C   LIG    1       -4.045  -3.307   0.880  0.00  0.00    +0.001 A 
ATOM      5  C   LIG    1       -5.300  -3.088   0.371  0.00  0.00    +0.001 A 
ATOM      6  C   LIG    1       -5.594  -1.804  -0.087  0.00  0.00    +0.015 A 
ATOM      7  C   LIG    1       -4.702  -0.786  -0.048  0.00  0.00    +0.020 A 
ATOM      8  S   LIG    1       -5.166   0.774  -0.720  0.00  0.00    -0.088 S 
ATOM      9  C   LIG    1       -3.925   1.936  -0.300  0.00  0.00    +0.020 A 
ATOM     10  C   LIG    1       -4.206   3.252  -0.520  0.00  0.00    +0.017 A 
ATOM     11  C   LIG    1       -3.275   4.199  -0.194  0.00  0.00    +0.021 A 
ATOM     12  C   LIG    1       -2.072   3.850   0.349  0.00  0.00    +0.042 A 
ATOM     13 CL   LIG    1       -0.899   5.056   0.769  0.00  0.00    -0.084 Cl
ATOM     14  C   LIG    1       -1.789   2.493   0.575  0.00  0.00    +0.029 A 
ATOM     15  C   LIG    1       -2.702   1.515   0.253  0.00  0.00    -0.006 A 
ENDROOT
BRANCH   1  16
ATOM     16  C   LIG    1       -1.221  -0.206   1.008  0.00  0.00    +0.029 C 
BRANCH  16  17
ATOM     17  C   LIG    1       -0.036   0.617   1.225  0.00  0.00    +0.024 C 
BRANCH  17  18
ATOM     18  C   LIG    1        1.104  -0.477   0.925  0.00  0.00    +0.085 C 
BRANCH  18  22
ATOM     19  N   LIG    1        3.817  -0.820  -0.928  0.00  0.00    -0.298 NA
ATOM     20  C   LIG    1        3.154  -1.858  -0.157  0.00  0.00    +0.100 C 
ATOM     21  C   LIG    1        1.770  -2.134  -0.602  0.00  0.00    +0.100 C 
ATOM     22  N   LIG    1        0.962  -0.920  -0.419  0.00  0.00    -0.300 NA
ATOM     23  C   LIG    1        1.548   0.002  -1.390  0.00  0.00    +0.100 C 
ATOM     24  C   LIG    1        2.981   0.351  -1.074  0.00  0.00    +0.100 C 
BRANCH  19  25
ATOM     25  C   LIG    1        4.990  -0.464  -0.163  0.00  0.00    +0.112 C 
BRANCH  25  26
ATOM     26  C   LIG    1        5.894   0.535  -0.783  0.00  0.00    +0.171 C 
BRANCH  26  27
ATOM     27  O   LIG    1        5.313   1.759  -1.035  0.00  0.00    -0.394 OA
ATOM     28  H   LIG    1        5.795   2.267  -1.750  0.00  0.00    +0.209 HD
ENDBRANCH  26  27
ENDBRANCH  25  26
ENDBRANCH  19  25
ENDBRANCH  18  22
ENDBRANCH  17  18
ENDBRANCH  16  17
ENDBRANCH   1  16
TORSDOF 7
