REMARK  Name = molecules/WFTSRDISOMSAQC-ZNFOTRSXSA-N.pdb
REMARK                            x       y       z     vdW  Elec       q    Type
REMARK                         _______ _______ _______ _____ _____    ______ ____
ROOT
ATOM      1  N   LIG    1       -4.541  -0.660  -0.238  0.00  0.00    -0.341 N 
ATOM      2  C   LIG    1       -3.483  -0.671   0.538  0.00  0.00    +0.040 A 
ATOM      3  C   LIG    1       -3.903  -1.291   1.743  0.00  0.00    -0.016 A 
ATOM      4  C   LIG    1       -2.851  -1.377   2.797  0.00  0.00    +0.053 C 
ATOM      5  C   LIG    1       -2.365   0.077   2.926  0.00  0.00    +0.090 C 
ATOM      6  N   LIG    1       -1.680   0.463   1.694  0.00  0.00    -0.293 NA
ATOM      7  C   LIG    1       -0.248   0.146   1.912  0.00  0.00    +0.089 C 
ATOM      8  C   LIG    1        0.568   0.530   0.731  0.00  0.00    +0.011 C 
ATOM      9  C   LIG    1        2.038   0.221   0.953  0.00  0.00    +0.052 C 
ATOM     10  C   LIG    1        2.700   0.015  -0.392  0.00  0.00    +0.206 C 
ATOM     11  C   LIG    1        2.208  -1.248  -0.994  0.00  0.00    +0.172 C 
ATOM     12  C   LIG    1        0.699  -1.182  -1.138  0.00  0.00    +0.133 C 
ATOM     13  C   LIG    1        0.099   0.045  -0.593  0.00  0.00    +0.012 C 
ATOM     14  C   LIG    1       -1.414   0.161  -0.666  0.00  0.00    +0.030 C 
ATOM     15  C   LIG    1       -5.215  -1.648   1.668  0.00  0.00    +0.004 A 
ATOM     16  C   LIG    1       -6.052  -2.268   2.567  0.00  0.00    +0.014 A 
ATOM     17  C   LIG    1       -7.362  -2.481   2.144  0.00  0.00    +0.046 A 
ATOM     18  C   LIG    1       -7.779  -2.085   0.890  0.00  0.00    +0.122 A 
ATOM     19  C   LIG    1       -6.909  -1.462   0.007  0.00  0.00    +0.072 A 
ATOM     20  C   LIG    1       -2.076  -0.336   0.553  0.00  0.00    +0.104 C 
ATOM     21  C   LIG    1       -5.613  -1.249   0.420  0.00  0.00    +0.053 A 
ENDROOT
BRANCH  12  22
ATOM     22  C   LIG    1        0.197  -2.484  -0.637  0.00  0.00    +0.313 C 
ATOM     23  O   LIG    1       -0.572  -3.242  -1.326  0.00  0.00    -0.250 OA
BRANCH  22  24
ATOM     24  O   LIG    1        0.517  -2.987   0.620  0.00  0.00    -0.468 OA
ATOM     25  C   LIG    1        0.013  -4.247   1.067  0.00  0.00    +0.280 C 
ENDBRANCH  22  24
ENDBRANCH  12  22
BRANCH  11  26
ATOM     26  O   LIG    1        2.819  -1.518  -2.236  0.00  0.00    -0.375 OA
ATOM     27  C   LIG    1        3.547  -2.697  -2.220  0.00  0.00    +0.194 C 
ENDBRANCH  11  26
BRANCH  18  28
ATOM     28  O   LIG    1       -9.082  -2.289   0.449  0.00  0.00    -0.495 OA
ATOM     29  C   LIG    1       -9.509  -1.885  -0.831  0.00  0.00    +0.277 C 
ENDBRANCH  18  28
BRANCH   1  30
ATOM     30  C   LIG    1       -4.736  -0.108  -1.538  0.00  0.00    +0.137 C 
BRANCH  30  31
ATOM     31  C   LIG    1       -5.414   1.243  -1.558  0.00  0.00    +0.106 C 
BRANCH  31  32
ATOM     32  N   LIG    1       -4.678   2.321  -0.974  0.00  0.00    -0.301 NA
BRANCH  32  33
ATOM     33  C   LIG    1       -5.479   3.441  -0.598  0.00  0.00    +0.081 C 
ATOM     34  C   LIG    1       -6.407   3.156   0.553  0.00  0.00    +0.020 C 
ENDBRANCH  32  33
BRANCH  32  35
ATOM     35  C   LIG    1       -3.589   2.756  -1.839  0.00  0.00    +0.081 C 
ATOM     36  C   LIG    1       -4.130   3.458  -3.075  0.00  0.00    +0.020 C 
ENDBRANCH  32  35
ENDBRANCH  31  32
ENDBRANCH  30  31
ENDBRANCH   1  30
BRANCH  10  37
ATOM     37  O   LIG    1        4.104   0.070  -0.271  0.00  0.00    -0.455 OA
BRANCH  37  38
ATOM     38  C   LIG    1        4.932   0.994  -0.839  0.00  0.00    +0.340 C 
ATOM     39  O   LIG    1        4.444   1.889  -1.541  0.00  0.00    -0.245 OA
BRANCH  38  40
ATOM     40  C   LIG    1        6.361   0.876  -0.588  0.00  0.00    +0.066 A 
ATOM     41  C   LIG    1        6.901  -0.117   0.197  0.00  0.00    +0.064 A 
ATOM     42  C   LIG    1        8.270  -0.192   0.415  0.00  0.00    +0.166 A 
ATOM     43  C   LIG    1        9.136   0.732  -0.149  0.00  0.00    +0.204 A 
ATOM     44  C   LIG    1        8.602   1.720  -0.928  0.00  0.00    +0.166 A 
ATOM     45  C   LIG    1        7.226   1.786  -1.142  0.00  0.00    +0.064 A 
BRANCH  42  46
ATOM     46  O   LIG    1        8.857  -1.173   1.196  0.00  0.00    -0.491 OA
ATOM     47  C   LIG    1        8.157  -2.191   1.847  0.00  0.00    +0.277 C 
ENDBRANCH  42  46
BRANCH  43  48
ATOM     48  O   LIG    1       10.506   0.675   0.056  0.00  0.00    -0.488 OA
ATOM     49  C   LIG    1       11.048   1.375   1.160  0.00  0.00    +0.277 C 
ENDBRANCH  43  48
BRANCH  44  50
ATOM     50  O   LIG    1        9.460   2.649  -1.498  0.00  0.00    -0.491 OA
ATOM     51  C   LIG    1        8.923   3.670  -2.301  0.00  0.00    +0.277 C 
ENDBRANCH  44  50
ENDBRANCH  38  40
ENDBRANCH  37  38
ENDBRANCH  10  37
TORSDOF 15
