REMARK  Name = molecules/WGJHHMKQBWSQIY-INIZCTEOSA-N.pdb
REMARK                            x       y       z     vdW  Elec       q    Type
REMARK                         _______ _______ _______ _____ _____    ______ ____
ROOT
ATOM      1  C   LIG    1        0.054   0.577   0.111  0.00  0.00    +0.094 C 
ATOM      2  C   LIG    1        1.043   1.378   0.882  0.00  0.00    +0.024 C 
ATOM      3  C   LIG    1        2.223   0.617   1.380  0.00  0.00    +0.017 C 
ATOM      4  C   LIG    1        3.231   0.299   0.303  0.00  0.00    +0.084 C 
ATOM      5  N   LIG    1        2.938  -0.893  -0.429  0.00  0.00    -0.305 NA
ATOM      6  C   LIG    1        3.846  -1.974  -0.205  0.00  0.00    +0.104 C 
ATOM      7  C   LIG    1        1.550  -1.273  -0.404  0.00  0.00    +0.085 C 
ATOM      8  C   LIG    1        0.753  -0.151  -1.017  0.00  0.00    +0.038 C 
ENDROOT
BRANCH   1   9
ATOM      9  C   LIG    1       -0.981   1.502  -0.419  0.00  0.00    -0.031 A 
ATOM     10  C   LIG    1       -1.960   1.954   0.438  0.00  0.00    +0.005 A 
ATOM     11  C   LIG    1       -2.946   2.811   0.009  0.00  0.00    +0.000 A 
ATOM     12  C   LIG    1       -2.948   3.217  -1.293  0.00  0.00    +0.000 A 
ATOM     13  C   LIG    1       -1.984   2.786  -2.180  0.00  0.00    +0.000 A 
ATOM     14  C   LIG    1       -0.999   1.917  -1.713  0.00  0.00    +0.005 A 
ENDBRANCH   1   9
BRANCH   1  15
ATOM     15  C   LIG    1       -0.612  -0.473   0.943  0.00  0.00    +0.318 C 
ATOM     16  O   LIG    1       -0.354  -0.645   2.159  0.00  0.00    -0.250 OA
BRANCH  15  17
ATOM     17  O   LIG    1       -1.550  -1.284   0.336  0.00  0.00    -0.464 OA
BRANCH  17  18
ATOM     18  C   LIG    1       -2.243  -2.311   1.028  0.00  0.00    +0.229 C 
ATOM     19  C   LIG    1       -3.175  -2.972   0.038  0.00  0.00    +0.048 C 
ENDBRANCH  17  18
ENDBRANCH  15  17
ENDBRANCH   1  15
TORSDOF 4
