REMARK  Name = molecules/WGWPRVFKDLAUQJ-MITYVQBRSA-N.pdb
REMARK                            x       y       z     vdW  Elec       q    Type
REMARK                         _______ _______ _______ _____ _____    ______ ____
ROOT
ATOM      1  N   LIG    1        7.446  -0.897   0.000  0.00  0.00    -0.344 NA
ATOM      2  H   LIG    1        8.232  -1.335   0.000  0.00  0.00    +0.115 HD
ATOM      3  H   LIG    1        7.995  -0.348   0.000  0.00  0.00    +0.115 HD
ATOM      4  H   LIG    1        6.696  -1.098   0.000  0.00  0.00    +0.115 HD
ENDROOT
TORSDOF 0
REMARK  Name = molecules/WGWPRVFKDLAUQJ-MITYVQBRSA-N.pdb
REMARK                            x       y       z     vdW  Elec       q    Type
REMARK                         _______ _______ _______ _____ _____    ______ ____
ROOT
ATOM      1  N   LIG    1        8.745  -2.745   0.000  0.00  0.00    +0.423 N 
ATOM      2  C   LIG    1        8.397  -3.348   0.000  0.00  0.00    -0.048 C 
ATOM      3  H   LIG    1        8.709  -1.881   0.000  0.00  0.00    -0.031 HD
ENDROOT
BRANCH   1   4
ATOM      4  O   LIG    1        9.300  -3.248   0.000  0.00  0.00    -0.442 OA
ATOM      5  H   LIG    1        8.612  -3.341   0.000  0.00  0.00    +0.186 HD
ENDBRANCH   1   4
BRANCH   1   6
ATOM      6  C   LIG    1        9.696  -2.598   0.000  0.00  0.00    +0.140 C 
BRANCH   6   7
ATOM      7  O   LIG    1       10.187  -2.061   0.000  0.00  0.00    -0.267 OA
ATOM      8  N   LIG    1       10.794  -1.794   0.000  0.00  0.00    +0.040 NA
ENDBRANCH   6   7
ENDBRANCH   1   6
TORSDOF 3
REMARK  Name = molecules/WGWPRVFKDLAUQJ-MITYVQBRSA-N.pdb
REMARK                            x       y       z     vdW  Elec       q    Type
REMARK                         _______ _______ _______ _____ _____    ______ ____
ROOT
ATOM      1  N   LIG    1       14.343  -2.343   0.000  0.00  0.00    -0.163 NA
ATOM      2  H   LIG    1       13.947  -3.193   0.000  0.00  0.00    +0.163 HD
ENDROOT
TORSDOF 0
REMARK  Name = molecules/WGWPRVFKDLAUQJ-MITYVQBRSA-N.pdb
REMARK                            x       y       z     vdW  Elec       q    Type
REMARK                         _______ _______ _______ _____ _____    ______ ____
ROOT
ATOM      1  N   LIG    1       13.794  -5.892   0.000  0.00  0.00    -0.273 NA
ATOM      2  H   LIG    1       12.724  -6.659   0.000  0.00  0.00    +0.137 HD
ATOM      3  H   LIG    1       14.941  -5.243   0.000  0.00  0.00    +0.137 HD
ENDROOT
TORSDOF 0
REMARK  Name = molecules/WGWPRVFKDLAUQJ-MITYVQBRSA-N.pdb
REMARK                            x       y       z     vdW  Elec       q    Type
REMARK                         _______ _______ _______ _____ _____    ______ ____
ROOT
ATOM      1  N   LIG    1       12.495  -4.044   0.000  0.00  0.00    -0.163 NA
ATOM      2  H   LIG    1       11.778  -4.828   0.000  0.00  0.00    +0.163 HD
ENDROOT
TORSDOF 0
REMARK  Name = molecules/WGWPRVFKDLAUQJ-MITYVQBRSA-N.pdb
REMARK                            x       y       z     vdW  Elec       q    Type
REMARK                         _______ _______ _______ _____ _____    ______ ____
ROOT
ATOM      1  N   LIG    1       10.446  -4.995   0.000  0.00  0.00    +0.000 NA
ENDROOT
TORSDOF 0
REMARK  Name = molecules/WGWPRVFKDLAUQJ-MITYVQBRSA-N.pdb
REMARK                            x       y       z     vdW  Elec       q    Type
REMARK                         _______ _______ _______ _____ _____    ______ ____
ROOT
ATOM      1  N   LIG    1        6.897  -4.446   0.000  0.00  0.00    +0.000 NA
ENDROOT
TORSDOF 0
REMARK  Name = molecules/WGWPRVFKDLAUQJ-MITYVQBRSA-N.pdb
REMARK                            x       y       z     vdW  Elec       q    Type
REMARK                         _______ _______ _______ _____ _____    ______ ____
ROOT
ATOM      1  N   LIG    1        4.848  -5.397   0.000  0.00  0.00    +0.000 NA
ENDROOT
TORSDOF 0
REMARK  Name = molecules/WGWPRVFKDLAUQJ-MITYVQBRSA-N.pdb
REMARK                            x       y       z     vdW  Elec       q    Type
REMARK                         _______ _______ _______ _____ _____    ______ ____
ROOT
ATOM      1  N   LIG    1        1.299  -4.848   0.000  0.00  0.00    -0.119 NA
ATOM      2  C   LIG    1        1.902  -5.598   0.000  0.00  0.00    +0.209 C 
ENDROOT
BRANCH   2   3
ATOM      3  N   LIG    1        2.250  -6.495   0.000  0.00  0.00    -0.233 NA
ATOM      4  H   LIG    1        2.605  -7.313   0.000  0.00  0.00    +0.143 HD
ENDBRANCH   2   3
TORSDOF 1
REMARK  Name = molecules/WGWPRVFKDLAUQJ-MITYVQBRSA-N.pdb
REMARK                            x       y       z     vdW  Elec       q    Type
REMARK                         _______ _______ _______ _____ _____    ______ ____
ROOT
ATOM      1  N   LIG    1        1.848  -1.299   0.000  0.00  0.00    -0.273 NA
ATOM      2  H   LIG    1        2.335  -0.890   0.000  0.00  0.00    +0.137 HD
ATOM      3  H   LIG    1        1.115  -0.869   0.000  0.00  0.00    +0.137 HD
ENDROOT
TORSDOF 0
REMARK  Name = molecules/WGWPRVFKDLAUQJ-MITYVQBRSA-N.pdb
REMARK                            x       y       z     vdW  Elec       q    Type
REMARK                         _______ _______ _______ _____ _____    ______ ____
ROOT
ATOM      1  N   LIG    1        5.397  -1.848   0.000  0.00  0.00    +0.000 NA
ENDROOT
TORSDOF 0
REMARK  Name = molecules/WGWPRVFKDLAUQJ-MITYVQBRSA-N.pdb
REMARK                            x       y       z     vdW  Elec       q    Type
REMARK                         _______ _______ _______ _____ _____    ______ ____
ROOT
ATOM      1  N   LIG    1        3.549  -3.147   0.000  0.00  0.00    -0.163 NA
ATOM      2  H   LIG    1        4.061  -3.619   0.000  0.00  0.00    +0.163 HD
ENDROOT
TORSDOF 0
REMARK  Name = molecules/WGWPRVFKDLAUQJ-MITYVQBRSA-N.pdb
REMARK                            x       y       z     vdW  Elec       q    Type
REMARK                         _______ _______ _______ _____ _____    ______ ____
ROOT
ATOM      1  N   LIG    1        5.598  -7.794   0.000  0.00  0.00    -0.159 NA
ATOM      2  H   LIG    1        6.122  -8.700   0.000  0.00  0.00    +0.163 HD
ENDROOT
BRANCH   1   3
ATOM      3  N   LIG    1        4.299  -7.446   0.000  0.00  0.00    -0.140 NA
ATOM      4  C   LIG    1        3.951  -8.745   0.000  0.00  0.00    +0.136 C 
ENDBRANCH   1   3
TORSDOF 1
REMARK  Name = molecules/WGWPRVFKDLAUQJ-MITYVQBRSA-N.pdb
REMARK                            x       y       z     vdW  Elec       q    Type
REMARK                         _______ _______ _______ _____ _____    ______ ____
ROOT
ATOM      1  N   LIG    1        9.495  -7.044   0.000  0.00  0.00    +0.038 NA
ATOM      2  O   LIG    1        9.532  -6.405   0.000  0.00  0.00    -0.278 OA
ATOM      3  H   LIG    1        8.946  -6.093   0.000  0.00  0.00    +0.240 HD
ENDROOT
TORSDOF 0
REMARK  Name = molecules/WGWPRVFKDLAUQJ-MITYVQBRSA-N.pdb
REMARK                            x       y       z     vdW  Elec       q    Type
REMARK                         _______ _______ _______ _____ _____    ______ ____
ROOT
ATOM      1  N   LIG    1       10.794  -3.696   0.000  0.00  0.00    +0.000 NA
ENDROOT
TORSDOF 0
REMARK  Name = molecules/WGWPRVFKDLAUQJ-MITYVQBRSA-N.pdb
REMARK                            x       y       z     vdW  Elec       q    Type
REMARK                         _______ _______ _______ _____ _____    ______ ____
ROOT
ATOM      1  N   LIG    1        8.745  -4.647   0.000  0.00  0.00    -0.111 NA
ATOM      2  H   LIG    1        9.439  -4.427   0.000  0.00  0.00    +0.176 HD
ENDROOT
BRANCH   1   3
ATOM      3  O   LIG    1        8.013  -4.805   0.000  0.00  0.00    -0.267 OA
ATOM      4  C   LIG    1        7.446  -5.397   0.000  0.00  0.00    +0.202 C 
ENDBRANCH   1   3
TORSDOF 1
REMARK  Name = molecules/WGWPRVFKDLAUQJ-MITYVQBRSA-N.pdb
REMARK                            x       y       z     vdW  Elec       q    Type
REMARK                         _______ _______ _______ _____ _____    ______ ____
ROOT
ATOM      1  N   LIG    1        7.446  -2.799   0.000  0.00  0.00    +0.000 NA
ENDROOT
TORSDOF 0
REMARK  Name = molecules/WGWPRVFKDLAUQJ-MITYVQBRSA-N.pdb
REMARK                            x       y       z     vdW  Elec       q    Type
REMARK                         _______ _______ _______ _____ _____    ______ ____
ROOT
ATOM      1  N   LIG    1        4.098  -1.500   0.000  0.00  0.00    +0.000 NA
ENDROOT
TORSDOF 0
REMARK  Name = molecules/WGWPRVFKDLAUQJ-MITYVQBRSA-N.pdb
REMARK                            x       y       z     vdW  Elec       q    Type
REMARK                         _______ _______ _______ _____ _____    ______ ____
ROOT
ATOM      1  N   LIG    1        5.049  -3.549   0.000  0.00  0.00    +0.119 NA
ATOM      2  O   LIG    1        4.485  -3.942   0.000  0.00  0.00    -0.119 OA
ENDROOT
TORSDOF 0
REMARK  Name = molecules/WGWPRVFKDLAUQJ-MITYVQBRSA-N.pdb
REMARK                            x       y       z     vdW  Elec       q    Type
REMARK                         _______ _______ _______ _____ _____    ______ ____
ROOT
ATOM      1  N   LIG    1        3.201  -4.848   0.000  0.00  0.00    -0.163 NA
ATOM      2  H   LIG    1        3.861  -4.680   0.000  0.00  0.00    +0.163 HD
ENDROOT
TORSDOF 0
REMARK  Name = molecules/WGWPRVFKDLAUQJ-MITYVQBRSA-N.pdb
REMARK                            x       y       z     vdW  Elec       q    Type
REMARK                         _______ _______ _______ _____ _____    ______ ____
ROOT
ATOM      1  N   LIG    1        1.902  -8.196   0.000  0.00  0.00    -0.180 NA
ATOM      2  C   LIG    1        0.951  -7.647   0.000  0.00  0.00    +0.180 C 
ENDROOT
TORSDOF 0
REMARK  Name = molecules/WGWPRVFKDLAUQJ-MITYVQBRSA-N.pdb
REMARK                            x       y       z     vdW  Elec       q    Type
REMARK                         _______ _______ _______ _____ _____    ______ ____
ROOT
ATOM      1  N   LIG    1        5.250  -9.495   0.000  0.00  0.00    -0.163 NA
ATOM      2  H   LIG    1        5.961  -9.250   0.000  0.00  0.00    +0.163 HD
ENDROOT
TORSDOF 0
REMARK  Name = molecules/WGWPRVFKDLAUQJ-MITYVQBRSA-N.pdb
REMARK                            x       y       z     vdW  Elec       q    Type
REMARK                         _______ _______ _______ _____ _____    ______ ____
ROOT
ATOM      1  N   LIG    1        6.147  -6.147   0.000  0.00  0.00    -0.273 NA
ATOM      2  H   LIG    1        6.965  -5.792   0.000  0.00  0.00    +0.137 HD
ATOM      3  H   LIG    1        5.571  -5.884   0.000  0.00  0.00    +0.137 HD
ENDROOT
TORSDOF 0
REMARK  Name = molecules/WGWPRVFKDLAUQJ-MITYVQBRSA-N.pdb
REMARK                            x       y       z     vdW  Elec       q    Type
REMARK                         _______ _______ _______ _____ _____    ______ ____
ROOT
ATOM      1  N   LIG    1        7.446  -7.995   0.000  0.00  0.00    -0.250 NA
ATOM      2  C   LIG    1        6.897  -7.044   0.000  0.00  0.00    +0.109 C 
ATOM      3  H   LIG    1        8.043  -8.876   0.000  0.00  0.00    +0.141 HD
ENDROOT
TORSDOF 0
REMARK  Name = molecules/WGWPRVFKDLAUQJ-MITYVQBRSA-N.pdb
REMARK                            x       y       z     vdW  Elec       q    Type
REMARK                         _______ _______ _______ _____ _____    ______ ____
ROOT
ATOM      1  N   LIG    1       10.794  -9.294   0.000  0.00  0.00    -0.344 NA
ATOM      2  H   LIG    1       10.271  -8.700   0.000  0.00  0.00    +0.115 HD
ATOM      3  H   LIG    1       11.550  -9.541   0.000  0.00  0.00    +0.115 HD
ATOM      4  H   LIG    1       10.013  -9.703   0.000  0.00  0.00    +0.115 HD
ENDROOT
TORSDOF 0
REMARK  Name = molecules/WGWPRVFKDLAUQJ-MITYVQBRSA-N.pdb
REMARK                            x       y       z     vdW  Elec       q    Type
REMARK                         _______ _______ _______ _____ _____    ______ ____
ROOT
ATOM      1  N   LIG    1       14.343  -9.843   0.000  0.00  0.00    -0.136 NA
ATOM      2  C   LIG    1       13.995  -9.240   0.000  0.00  0.00    +0.136 C 
ENDROOT
TORSDOF 0
REMARK  Name = molecules/WGWPRVFKDLAUQJ-MITYVQBRSA-N.pdb
REMARK                            x       y       z     vdW  Elec       q    Type
REMARK                         _______ _______ _______ _____ _____    ______ ____
ROOT
ATOM      1  N   LIG    1       12.495 -11.142   0.000  0.00  0.00    +0.000 NA
ENDROOT
TORSDOF 0
REMARK  Name = molecules/WGWPRVFKDLAUQJ-MITYVQBRSA-N.pdb
REMARK                            x       y       z     vdW  Elec       q    Type
REMARK                         _______ _______ _______ _____ _____    ______ ____
ROOT
ATOM      1  C   LIG    1        9.495  -1.446   0.000  0.00  0.00    -0.000 C 
ENDROOT
TORSDOF 0
REMARK  Name = molecules/WGWPRVFKDLAUQJ-MITYVQBRSA-N.pdb
REMARK                            x       y       z     vdW  Elec       q    Type
REMARK                         _______ _______ _______ _____ _____    ______ ____
ROOT
ATOM      1  C   LIG    1        7.995   1.152   0.000  0.00  0.00    -0.000 C 
ENDROOT
TORSDOF 0
REMARK  Name = molecules/WGWPRVFKDLAUQJ-MITYVQBRSA-N.pdb
REMARK                            x       y       z     vdW  Elec       q    Type
REMARK                         _______ _______ _______ _____ _____    ______ ____
ROOT
ATOM      1  C   LIG    1        7.245   2.451   0.000  0.00  0.00    -0.018 A 
ATOM      2  C   LIG    1        7.995   3.750   0.000  0.00  0.00    +0.012 A 
ATOM      3  C   LIG    1        7.245   5.049   0.000  0.00  0.00    +0.051 A 
ATOM      4  C   LIG    1        5.745   5.049   0.000  0.00  0.00    +0.179 A 
ATOM      5  O   LIG    1        4.995   6.348   0.000  0.00  0.00    -0.288 OA
ATOM      6  C   LIG    1        4.995   3.750   0.000  0.00  0.00    +0.051 A 
ATOM      7  C   LIG    1        5.745   2.451   0.000  0.00  0.00    +0.012 A 
ENDROOT
TORSDOF 0
REMARK  Name = molecules/WGWPRVFKDLAUQJ-MITYVQBRSA-N.pdb
REMARK                            x       y       z     vdW  Elec       q    Type
REMARK                         _______ _______ _______ _____ _____    ______ ____
ROOT
ATOM      1  C   LIG    1        8.745  -0.147   0.000  0.00  0.00    +0.000 C 
ENDROOT
TORSDOF 0
REMARK  Name = molecules/WGWPRVFKDLAUQJ-MITYVQBRSA-N.pdb
REMARK                            x       y       z     vdW  Elec       q    Type
REMARK                         _______ _______ _______ _____ _____    ______ ____
ROOT
ATOM      1  O   LIG    1       10.610  -0.442   0.000  0.00  0.00    -0.225 OA
ATOM      2  C   LIG    1       10.044  -0.897   0.000  0.00  0.00    +0.225 C 
ENDROOT
TORSDOF 0
REMARK  Name = molecules/WGWPRVFKDLAUQJ-MITYVQBRSA-N.pdb
REMARK                            x       y       z     vdW  Elec       q    Type
REMARK                         _______ _______ _______ _____ _____    ______ ____
ROOT
ATOM      1  C   LIG    1       10.794  -3.294   0.000  0.00  0.00    +0.000 C 
ENDROOT
TORSDOF 0
REMARK  Name = molecules/WGWPRVFKDLAUQJ-MITYVQBRSA-N.pdb
REMARK                            x       y       z     vdW  Elec       q    Type
REMARK                         _______ _______ _______ _____ _____    ______ ____
ROOT
ATOM      1  C   LIG    1        8.196  -4.794   0.000  0.00  0.00    +0.000 C 
ENDROOT
TORSDOF 0
REMARK  Name = molecules/WGWPRVFKDLAUQJ-MITYVQBRSA-N.pdb
REMARK                            x       y       z     vdW  Elec       q    Type
REMARK                         _______ _______ _______ _____ _____    ______ ____
ROOT
ATOM      1  C   LIG    1        9.495  -4.044   0.000  0.00  0.00    +0.000 C 
ATOM      2  C   LIG    1       10.446  -3.495   0.000  0.00  0.00    +0.000 C 
ENDROOT
TORSDOF 0
REMARK  Name = molecules/WGWPRVFKDLAUQJ-MITYVQBRSA-N.pdb
REMARK                            x       y       z     vdW  Elec       q    Type
REMARK                         _______ _______ _______ _____ _____    ______ ____
ROOT
ATOM      1  O   HOH    1       12.276  -3.529   0.000  0.00  0.00    -0.253 OA
ATOM      2  H   HOH    0       11.745  -3.147   0.000  0.00  0.00    +0.253 HD
ENDROOT
TORSDOF 0
REMARK  Name = molecules/WGWPRVFKDLAUQJ-MITYVQBRSA-N.pdb
REMARK                            x       y       z     vdW  Elec       q    Type
REMARK                         _______ _______ _______ _____ _____    ______ ____
ROOT
ATOM      1  C   LIG    1       12.843  -2.343   0.000  0.00  0.00    +0.000 C 
ENDROOT
TORSDOF 0
REMARK  Name = molecules/WGWPRVFKDLAUQJ-MITYVQBRSA-N.pdb
REMARK                            x       y       z     vdW  Elec       q    Type
REMARK                         _______ _______ _______ _____ _____    ______ ____
ROOT
ATOM      1  C   LIG    1       11.343   0.255   0.000  0.00  0.00    +0.000 C 
ENDROOT
TORSDOF 0
REMARK  Name = molecules/WGWPRVFKDLAUQJ-MITYVQBRSA-N.pdb
REMARK                            x       y       z     vdW  Elec       q    Type
REMARK                         _______ _______ _______ _____ _____    ______ ____
ROOT
ATOM      1  C   LIG    1       10.593   1.554   0.000  0.00  0.00    +0.000 C 
ENDROOT
TORSDOF 0
REMARK  Name = molecules/WGWPRVFKDLAUQJ-MITYVQBRSA-N.pdb
REMARK                            x       y       z     vdW  Elec       q    Type
REMARK                         _______ _______ _______ _____ _____    ______ ____
ROOT
ATOM      1  O   HOH    1       11.343   2.853   0.000  0.00  0.00    -0.253 OA
ATOM      2  H   HOH    0       11.658   1.883   0.000  0.00  0.00    +0.253 HD
ENDROOT
TORSDOF 0
REMARK  Name = molecules/WGWPRVFKDLAUQJ-MITYVQBRSA-N.pdb
REMARK                            x       y       z     vdW  Elec       q    Type
REMARK                         _______ _______ _______ _____ _____    ______ ____
ROOT
ATOM      1  O   HOH    1        9.104   1.737   0.000  0.00  0.00    -0.253 OA
ATOM      2  H   HOH    0        9.689   1.019   0.000  0.00  0.00    +0.253 HD
ENDROOT
TORSDOF 0
REMARK  Name = molecules/WGWPRVFKDLAUQJ-MITYVQBRSA-N.pdb
REMARK                            x       y       z     vdW  Elec       q    Type
REMARK                         _______ _______ _______ _____ _____    ______ ____
ROOT
ATOM      1  C   LIG    1       12.093  -1.044   0.000  0.00  0.00    +0.018 C 
ATOM      2  C   LIG    1       11.343  -1.647   0.000  0.00  0.00    -0.018 C 
ENDROOT
TORSDOF 0
REMARK  Name = molecules/WGWPRVFKDLAUQJ-MITYVQBRSA-N.pdb
REMARK                            x       y       z     vdW  Elec       q    Type
REMARK                         _______ _______ _______ _____ _____    ______ ____
ROOT
ATOM      1  O   HOH    1       12.257  -3.724   0.000  0.00  0.00    +0.000 OA
ENDROOT
TORSDOF 0
REMARK  Name = molecules/WGWPRVFKDLAUQJ-MITYVQBRSA-N.pdb
REMARK                            x       y       z     vdW  Elec       q    Type
REMARK                         _______ _______ _______ _____ _____    ______ ____
ROOT
ATOM      1  C   LIG    1       13.794  -4.392   0.000  0.00  0.00    +0.000 C 
ENDROOT
TORSDOF 0
REMARK  Name = molecules/WGWPRVFKDLAUQJ-MITYVQBRSA-N.pdb
REMARK                            x       y       z     vdW  Elec       q    Type
REMARK                         _______ _______ _______ _____ _____    ______ ____
ROOT
ATOM      1  C   LIG    1       16.392  -2.892   0.000  0.00  0.00    +0.000 C 
ENDROOT
TORSDOF 0
REMARK  Name = molecules/WGWPRVFKDLAUQJ-MITYVQBRSA-N.pdb
REMARK                            x       y       z     vdW  Elec       q    Type
REMARK                         _______ _______ _______ _____ _____    ______ ____
ROOT
ATOM      1  C   LIG    1       15.093  -3.642   0.000  0.00  0.00    +0.000 C 
ENDROOT
TORSDOF 0
REMARK  Name = molecules/WGWPRVFKDLAUQJ-MITYVQBRSA-N.pdb
REMARK                            x       y       z     vdW  Elec       q    Type
REMARK                         _______ _______ _______ _____ _____    ______ ____
ROOT
ATOM      1  O   HOH    1       12.414  -3.806   0.000  0.00  0.00    +0.000 OA
ENDROOT
TORSDOF 0
REMARK  Name = molecules/WGWPRVFKDLAUQJ-MITYVQBRSA-N.pdb
REMARK                            x       y       z     vdW  Elec       q    Type
REMARK                         _______ _______ _______ _____ _____    ______ ____
ROOT
ATOM      1  C   LIG    1       11.745  -5.343   0.000  0.00  0.00    +0.000 C 
ENDROOT
TORSDOF 0
REMARK  Name = molecules/WGWPRVFKDLAUQJ-MITYVQBRSA-N.pdb
REMARK                            x       y       z     vdW  Elec       q    Type
REMARK                         _______ _______ _______ _____ _____    ______ ____
ROOT
ATOM      1  C   LIG    1       13.245  -7.941   0.000  0.00  0.00    +0.000 C 
ENDROOT
TORSDOF 0
REMARK  Name = molecules/WGWPRVFKDLAUQJ-MITYVQBRSA-N.pdb
REMARK                            x       y       z     vdW  Elec       q    Type
REMARK                         _______ _______ _______ _____ _____    ______ ____
ROOT
ATOM      1  C   LIG    1       12.495  -6.642   0.000  0.00  0.00    +0.000 C 
ENDROOT
TORSDOF 0
REMARK  Name = molecules/WGWPRVFKDLAUQJ-MITYVQBRSA-N.pdb
REMARK                            x       y       z     vdW  Elec       q    Type
REMARK                         _______ _______ _______ _____ _____    ______ ____
ROOT
ATOM      1  C   LIG    1       15.843  -6.441   0.000  0.00  0.00    +0.000 C 
ENDROOT
TORSDOF 0
REMARK  Name = molecules/WGWPRVFKDLAUQJ-MITYVQBRSA-N.pdb
REMARK                            x       y       z     vdW  Elec       q    Type
REMARK                         _______ _______ _______ _____ _____    ______ ____
ROOT
ATOM      1  C   LIG    1       14.544  -7.191   0.000  0.00  0.00    -0.000 C 
ENDROOT
TORSDOF 0
REMARK  Name = molecules/WGWPRVFKDLAUQJ-MITYVQBRSA-N.pdb
REMARK                            x       y       z     vdW  Elec       q    Type
REMARK                         _______ _______ _______ _____ _____    ______ ____
ROOT
ATOM      1  O   LIG    1       10.245  -5.343   0.000  0.00  0.00    +0.000 OA
ATOM      2  O   LIG    1       10.593  -5.946   0.000  0.00  0.00    +0.000 OA
ENDROOT
TORSDOF 0
REMARK  Name = molecules/WGWPRVFKDLAUQJ-MITYVQBRSA-N.pdb
REMARK                            x       y       z     vdW  Elec       q    Type
REMARK                         _______ _______ _______ _____ _____    ______ ____
ROOT
ATOM      1  C   LIG    1       13.044  -1.995   0.000  0.00  0.00    +0.109 C 
ATOM      2  N   LIG    1       12.294  -1.098   0.000  0.00  0.00    -0.250 NA
ATOM      3  H   LIG    1       11.517  -1.183   0.000  0.00  0.00    +0.141 HD
ENDROOT
TORSDOF 0
REMARK  Name = molecules/WGWPRVFKDLAUQJ-MITYVQBRSA-N.pdb
REMARK                            x       y       z     vdW  Elec       q    Type
REMARK                         _______ _______ _______ _____ _____    ______ ____
ROOT
ATOM      1  C   LIG    1       14.343  -1.245   0.000  0.00  0.00    +0.000 C 
ENDROOT
TORSDOF 0
REMARK  Name = molecules/WGWPRVFKDLAUQJ-MITYVQBRSA-N.pdb
REMARK                            x       y       z     vdW  Elec       q    Type
REMARK                         _______ _______ _______ _____ _____    ______ ____
ROOT
ATOM      1  C   LIG    1       15.642  -1.995   0.000  0.00  0.00    -0.000 C 
ENDROOT
TORSDOF 0
REMARK  Name = molecules/WGWPRVFKDLAUQJ-MITYVQBRSA-N.pdb
REMARK                            x       y       z     vdW  Elec       q    Type
REMARK                         _______ _______ _______ _____ _____    ______ ____
ROOT
ATOM      1  C   LIG    1       16.941  -1.245   0.000  0.00  0.00    -0.004 C 
ATOM      2  C   LIG    1       16.941   0.255   0.000  0.00  0.00    -0.022 C 
ATOM      3  C   LIG    1       15.642   1.005   0.000  0.00  0.00    +0.026 C 
ENDROOT
TORSDOF 0
REMARK  Name = molecules/WGWPRVFKDLAUQJ-MITYVQBRSA-N.pdb
REMARK                            x       y       z     vdW  Elec       q    Type
REMARK                         _______ _______ _______ _____ _____    ______ ____
ROOT
ATOM      1  C   LIG    1       14.343   0.255   0.000  0.00  0.00    +0.000 C 
ENDROOT
TORSDOF 0
REMARK  Name = molecules/WGWPRVFKDLAUQJ-MITYVQBRSA-N.pdb
REMARK                            x       y       z     vdW  Elec       q    Type
REMARK                         _______ _______ _______ _____ _____    ______ ____
ROOT
ATOM      1  C   LIG    1       11.745  -2.745   0.000  0.00  0.00    +0.000 C 
ENDROOT
TORSDOF 0
REMARK  Name = molecules/WGWPRVFKDLAUQJ-MITYVQBRSA-N.pdb
REMARK                            x       y       z     vdW  Elec       q    Type
REMARK                         _______ _______ _______ _____ _____    ______ ____
ROOT
ATOM      1  O   HOH    1        9.983  -2.068   0.000  0.00  0.00    -0.253 OA
ATOM      2  H   HOH    0        9.827  -1.104   0.000  0.00  0.00    +0.253 HD
ENDROOT
TORSDOF 0
REMARK  Name = molecules/WGWPRVFKDLAUQJ-MITYVQBRSA-N.pdb
REMARK                            x       y       z     vdW  Elec       q    Type
REMARK                         _______ _______ _______ _____ _____    ______ ____
ROOT
ATOM      1  C   LIG    1        8.397  -4.446   0.000  0.00  0.00    +0.000 C 
ENDROOT
TORSDOF 0
REMARK  Name = molecules/WGWPRVFKDLAUQJ-MITYVQBRSA-N.pdb
REMARK                            x       y       z     vdW  Elec       q    Type
REMARK                         _______ _______ _______ _____ _____    ______ ____
ROOT
ATOM      1  O   LIG    1        8.598  -7.794   0.000  0.00  0.00    -0.035 OA
ATOM      2  O   LIG    1        8.957  -7.144   0.000  0.00  0.00    -0.186 OA
ATOM      3  C   LIG    1        8.196  -6.696   0.000  0.00  0.00    +0.221 C 
ENDROOT
TORSDOF 0
REMARK  Name = molecules/WGWPRVFKDLAUQJ-MITYVQBRSA-N.pdb
REMARK                            x       y       z     vdW  Elec       q    Type
REMARK                         _______ _______ _______ _____ _____    ______ ____
ROOT
ATOM      1  C   LIG    1        9.147  -5.745   0.000  0.00  0.00    +0.000 C 
ENDROOT
TORSDOF 0
REMARK  Name = molecules/WGWPRVFKDLAUQJ-MITYVQBRSA-N.pdb
REMARK                            x       y       z     vdW  Elec       q    Type
REMARK                         _______ _______ _______ _____ _____    ______ ____
ROOT
ATOM      1  C   LIG    1       10.647  -8.343   0.000  0.00  0.00    +0.000 C 
ENDROOT
TORSDOF 0
REMARK  Name = molecules/WGWPRVFKDLAUQJ-MITYVQBRSA-N.pdb
REMARK                            x       y       z     vdW  Elec       q    Type
REMARK                         _______ _______ _______ _____ _____    ______ ____
ROOT
ATOM      1  C   LIG    1        9.897  -7.044   0.000  0.00  0.00    +0.000 C 
ENDROOT
TORSDOF 0
REMARK  Name = molecules/WGWPRVFKDLAUQJ-MITYVQBRSA-N.pdb
REMARK                            x       y       z     vdW  Elec       q    Type
REMARK                         _______ _______ _______ _____ _____    ______ ____
ROOT
ATOM      1  C   LIG    1        4.848  -3.897   0.000  0.00  0.00    +0.000 C 
ENDROOT
TORSDOF 0
REMARK  Name = molecules/WGWPRVFKDLAUQJ-MITYVQBRSA-N.pdb
REMARK                            x       y       z     vdW  Elec       q    Type
REMARK                         _______ _______ _______ _____ _____    ______ ____
ROOT
ATOM      1  C   LIG    1        7.446  -2.397   0.000  0.00  0.00    +0.000 C 
ENDROOT
TORSDOF 0
REMARK  Name = molecules/WGWPRVFKDLAUQJ-MITYVQBRSA-N.pdb
REMARK                            x       y       z     vdW  Elec       q    Type
REMARK                         _______ _______ _______ _____ _____    ______ ____
ROOT
ATOM      1  C   LIG    1        8.745  -1.647   0.000  0.00  0.00    +0.000 C 
ENDROOT
TORSDOF 0
REMARK  Name = molecules/WGWPRVFKDLAUQJ-MITYVQBRSA-N.pdb
REMARK                            x       y       z     vdW  Elec       q    Type
REMARK                         _______ _______ _______ _____ _____    ______ ____
ROOT
ATOM      1  N   LIG    1        8.745  -0.147   0.000  0.00  0.00    +0.000 NA
ENDROOT
TORSDOF 0
REMARK  Name = molecules/WGWPRVFKDLAUQJ-MITYVQBRSA-N.pdb
REMARK                            x       y       z     vdW  Elec       q    Type
REMARK                         _______ _______ _______ _____ _____    ______ ____
ROOT
ATOM      1  C   LIG    1        6.147  -3.147   0.000  0.00  0.00    +0.000 C 
ENDROOT
TORSDOF 0
REMARK  Name = molecules/WGWPRVFKDLAUQJ-MITYVQBRSA-N.pdb
REMARK                            x       y       z     vdW  Elec       q    Type
REMARK                         _______ _______ _______ _____ _____    ______ ____
ROOT
ATOM      1  O   LIG    1        3.354  -4.028   0.000  0.00  0.00    -0.036 OA
ENDROOT
BRANCH   1   2
ATOM      2  O   LIG    1        2.643  -4.071   0.000  0.00  0.00    -0.002 OA
ATOM      3  O   LIG    1        2.799  -4.848   0.000  0.00  0.00    -0.000 OA
ENDBRANCH   1   2
BRANCH   1   4
ATOM      4  O   LIG    1        3.212  -3.406   0.000  0.00  0.00    -0.218 OA
ATOM      5  H   LIG    1        2.451  -3.549   0.000  0.00  0.00    +0.256 HD
ENDBRANCH   1   4
TORSDOF 2
REMARK  Name = molecules/WGWPRVFKDLAUQJ-MITYVQBRSA-N.pdb
REMARK                            x       y       z     vdW  Elec       q    Type
REMARK                         _______ _______ _______ _____ _____    ______ ____
ROOT
ATOM      1  C   LIG    1        2.799  -4.848   0.000  0.00  0.00    +0.000 C 
ENDROOT
TORSDOF 0
REMARK  Name = molecules/WGWPRVFKDLAUQJ-MITYVQBRSA-N.pdb
REMARK                            x       y       z     vdW  Elec       q    Type
REMARK                         _______ _______ _______ _____ _____    ______ ____
ROOT
ATOM      1  C   LIG    1        4.299  -7.446   0.000  0.00  0.00    +0.000 C 
ENDROOT
TORSDOF 0
REMARK  Name = molecules/WGWPRVFKDLAUQJ-MITYVQBRSA-N.pdb
REMARK                            x       y       z     vdW  Elec       q    Type
REMARK                         _______ _______ _______ _____ _____    ______ ____
ROOT
ATOM      1  O   HOH    1        5.049  -8.745   0.000  0.00  0.00    -0.253 OA
ATOM      2  H   HOH    0        5.625  -9.249   0.000  0.00  0.00    +0.253 HD
ENDROOT
TORSDOF 0
REMARK  Name = molecules/WGWPRVFKDLAUQJ-MITYVQBRSA-N.pdb
REMARK                            x       y       z     vdW  Elec       q    Type
REMARK                         _______ _______ _______ _____ _____    ______ ____
ROOT
ATOM      1  C   LIG    1        3.549  -6.147   0.000  0.00  0.00    +0.000 C 
ENDROOT
TORSDOF 0
REMARK  Name = molecules/WGWPRVFKDLAUQJ-MITYVQBRSA-N.pdb
REMARK                            x       y       z     vdW  Elec       q    Type
REMARK                         _______ _______ _______ _____ _____    ______ ____
ROOT
ATOM      1  C   LIG    1        1.848  -2.799   0.000  0.00  0.00    +0.000 C 
ENDROOT
TORSDOF 0
REMARK  Name = molecules/WGWPRVFKDLAUQJ-MITYVQBRSA-N.pdb
REMARK                            x       y       z     vdW  Elec       q    Type
REMARK                         _______ _______ _______ _____ _____    ______ ____
ROOT
ATOM      1  C   LIG    1       -3.348  -4.299   0.000  0.00  0.00    +0.011 C 
ATOM      2  C   LIG    1       -4.647  -5.049   0.000  0.00  0.00    +0.051 C 
ENDROOT
BRANCH   2   3
ATOM      3  C   LIG    1       -4.647  -6.549   0.000  0.00  0.00    +0.176 C 
ATOM      4  C   LIG    1       -3.348  -7.299   0.000  0.00  0.00    +0.033 C 
ATOM      5  C   LIG    1       -2.049  -6.549   0.000  0.00  0.00    +0.025 C 
ATOM      6  O   LIG    1       -5.946  -7.299   0.000  0.00  0.00    -0.288 OA
ENDBRANCH   2   3
BRANCH   1   8
ATOM      7  C   LIG    1       -0.750  -4.299   0.000  0.00  0.00    +0.017 C 
ATOM      8  C   LIG    1       -2.049  -5.049   0.000  0.00  0.00    -0.025 C 
ENDBRANCH   1   8
TORSDOF 2
REMARK  Name = molecules/WGWPRVFKDLAUQJ-MITYVQBRSA-N.pdb
REMARK                            x       y       z     vdW  Elec       q    Type
REMARK                         _______ _______ _______ _____ _____    ______ ____
ROOT
ATOM      1  C   LIG    1        0.549  -3.549   0.000  0.00  0.00    +0.018 C 
ATOM      2  C   LIG    1        1.152  -4.299   0.000  0.00  0.00    -0.018 C 
ENDROOT
TORSDOF 0
REMARK  Name = molecules/WGWPRVFKDLAUQJ-MITYVQBRSA-N.pdb
REMARK                            x       y       z     vdW  Elec       q    Type
REMARK                         _______ _______ _______ _____ _____    ______ ____
ROOT
ATOM      1  C   LIG    1        3.897  -1.848   0.000  0.00  0.00    +0.000 C 
ENDROOT
TORSDOF 0
REMARK  Name = molecules/WGWPRVFKDLAUQJ-MITYVQBRSA-N.pdb
REMARK                            x       y       z     vdW  Elec       q    Type
REMARK                         _______ _______ _______ _____ _____    ______ ____
ROOT
ATOM      1  C   LIG    1        2.397   0.750   0.000  0.00  0.00    +0.000 C 
ATOM      2  C   LIG    1        1.299   0.348   0.000  0.00  0.00    +0.000 C 
ENDROOT
TORSDOF 0
REMARK  Name = molecules/WGWPRVFKDLAUQJ-MITYVQBRSA-N.pdb
REMARK                            x       y       z     vdW  Elec       q    Type
REMARK                         _______ _______ _______ _____ _____    ______ ____
ROOT
ATOM      1  C   LIG    1        1.647   2.049   0.000  0.00  0.00    -0.004 C 
ATOM      2  C   LIG    1        0.549   1.647   0.000  0.00  0.00    +0.004 C 
ENDROOT
TORSDOF 0
REMARK  Name = molecules/WGWPRVFKDLAUQJ-MITYVQBRSA-N.pdb
REMARK                            x       y       z     vdW  Elec       q    Type
REMARK                         _______ _______ _______ _____ _____    ______ ____
ROOT
ATOM      1  C   LIG    1        0.897   3.348   0.000  0.00  0.00    +0.145 C 
ATOM      2  C   LIG    1        0.549   4.245   0.000  0.00  0.00    +0.038 C 
ATOM      3  N   LIG    1        2.049   4.245   0.000  0.00  0.00    -0.115 NA
ENDROOT
BRANCH   1   4
ATOM      4  N   LIG    1       -0.201   2.946   0.000  0.00  0.00    -0.307 NA
ATOM      5  H   LIG    1       -1.353   2.049   0.000  0.00  0.00    +0.120 HD
ATOM      6  H   LIG    1        0.205   1.636   0.000  0.00  0.00    +0.120 HD
ENDBRANCH   1   4
TORSDOF 1
REMARK  Name = molecules/WGWPRVFKDLAUQJ-MITYVQBRSA-N.pdb
REMARK                            x       y       z     vdW  Elec       q    Type
REMARK                         _______ _______ _______ _____ _____    ______ ____
ROOT
ATOM      1  C   LIG    1       -1.353   4.647   0.000  0.00  0.00    +0.475 C 
ATOM      2  N   LIG    1       -2.103   5.946   0.000  0.00  0.00    +0.130 NA
ENDROOT
BRANCH   1   4
ATOM      3  N   LIG    1        0.147   4.647   0.000  0.00  0.00    +0.072 NA
ATOM      4  N   LIG    1       -0.201   5.544   0.000  0.00  0.00    -0.158 N 
ATOM      5  H   LIG    1        0.897   5.946   0.000  0.00  0.00    +0.286 HD
ENDBRANCH   1   4
BRANCH   1   6
ATOM      6  N   LIG    1       -2.103   3.348   0.000  0.00  0.00    -0.123 NA
ATOM      7  H   LIG    1       -1.656   2.583   0.000  0.00  0.00    +0.306 HD
ENDBRANCH   1   6
TORSDOF 2
REMARK  Name = molecules/WGWPRVFKDLAUQJ-MITYVQBRSA-N.pdb
REMARK                            x       y       z     vdW  Elec       q    Type
REMARK                         _______ _______ _______ _____ _____    ______ ____
ROOT
ATOM      1  C   LIG    1        3.147  -0.549   0.000  0.00  0.00    +0.000 C 
ENDROOT
TORSDOF 0
REMARK  Name = molecules/WGWPRVFKDLAUQJ-MITYVQBRSA-N.pdb
REMARK                            x       y       z     vdW  Elec       q    Type
REMARK                         _______ _______ _______ _____ _____    ______ ____
ROOT
ATOM      1  O   HOH    1        3.663  -3.330   0.000  0.00  0.00    -0.253 OA
ATOM      2  H   HOH    0        2.973  -3.045   0.000  0.00  0.00    +0.253 HD
ENDROOT
TORSDOF 0
REMARK  Name = molecules/WGWPRVFKDLAUQJ-MITYVQBRSA-N.pdb
REMARK                            x       y       z     vdW  Elec       q    Type
REMARK                         _______ _______ _______ _____ _____    ______ ____
ROOT
ATOM      1  C   LIG    1        4.848  -3.897   0.000  0.00  0.00    +0.000 C 
ENDROOT
TORSDOF 0
REMARK  Name = molecules/WGWPRVFKDLAUQJ-MITYVQBRSA-N.pdb
REMARK                            x       y       z     vdW  Elec       q    Type
REMARK                         _______ _______ _______ _____ _____    ______ ____
ROOT
ATOM      1  C   LIG    1        8.745  -1.647   0.000  0.00  0.00    +0.000 C 
ENDROOT
TORSDOF 0
REMARK  Name = molecules/WGWPRVFKDLAUQJ-MITYVQBRSA-N.pdb
REMARK                            x       y       z     vdW  Elec       q    Type
REMARK                         _______ _______ _______ _____ _____    ______ ____
ROOT
ATOM      1  C   LIG    1        7.446  -2.397   0.000  0.00  0.00    +0.000 C 
ENDROOT
TORSDOF 0
REMARK  Name = molecules/WGWPRVFKDLAUQJ-MITYVQBRSA-N.pdb
REMARK                            x       y       z     vdW  Elec       q    Type
REMARK                         _______ _______ _______ _____ _____    ______ ____
ROOT
ATOM      1  C   LIG    1        6.147  -3.147   0.000  0.00  0.00    +0.000 C 
ENDROOT
TORSDOF 0
REMARK  Name = molecules/WGWPRVFKDLAUQJ-MITYVQBRSA-N.pdb
REMARK                            x       y       z     vdW  Elec       q    Type
REMARK                         _______ _______ _______ _____ _____    ______ ____
ROOT
ATOM      1  N   LIG    1       12.642   0.603   0.000  0.00  0.00    -0.302 NA
ATOM      2  C   LIG    1       11.892   0.402   0.000  0.00  0.00    +0.063 C 
ATOM      3  C   LIG    1       11.343  -0.147   0.000  0.00  0.00    +0.053 C 
ATOM      4  H   LIG    1       12.836   1.568   0.000  0.00  0.00    +0.186 HD
ENDROOT
TORSDOF 0
REMARK  Name = molecules/WGWPRVFKDLAUQJ-MITYVQBRSA-N.pdb
REMARK                            x       y       z     vdW  Elec       q    Type
REMARK                         _______ _______ _______ _____ _____    ______ ____
ROOT
ATOM      1  O   HOH    1        4.848  -5.397   0.000  0.00  0.00    +0.000 OA
ENDROOT
TORSDOF 0
REMARK  Name = molecules/WGWPRVFKDLAUQJ-MITYVQBRSA-N.pdb
REMARK                            x       y       z     vdW  Elec       q    Type
REMARK                         _______ _______ _______ _____ _____    ______ ____
ROOT
ATOM      1  C   LIG    1        3.000  -5.196   0.000  0.00  0.00    +0.000 C 
ENDROOT
TORSDOF 0
REMARK  Name = molecules/WGWPRVFKDLAUQJ-MITYVQBRSA-N.pdb
REMARK                            x       y       z     vdW  Elec       q    Type
REMARK                         _______ _______ _______ _____ _____    ______ ____
ROOT
ATOM      1  C   LIG    1        0.750  -1.299   0.000  0.00  0.00    +0.000 C 
ENDROOT
TORSDOF 0
REMARK  Name = molecules/WGWPRVFKDLAUQJ-MITYVQBRSA-N.pdb
REMARK                            x       y       z     vdW  Elec       q    Type
REMARK                         _______ _______ _______ _____ _____    ______ ____
ROOT
ATOM      1  C   LIG    1        2.250  -3.897   0.000  0.00  0.00    +0.000 C 
ENDROOT
TORSDOF 0
REMARK  Name = molecules/WGWPRVFKDLAUQJ-MITYVQBRSA-N.pdb
REMARK                            x       y       z     vdW  Elec       q    Type
REMARK                         _______ _______ _______ _____ _____    ______ ____
ROOT
ATOM      1  C   LIG    1        2.799  -1.848   0.000  0.00  0.00    +0.000 C 
ENDROOT
TORSDOF 0
REMARK  Name = molecules/WGWPRVFKDLAUQJ-MITYVQBRSA-N.pdb
REMARK                            x       y       z     vdW  Elec       q    Type
REMARK                         _______ _______ _______ _____ _____    ______ ____
ROOT
ATOM      1  C   LIG    1        1.500  -2.598   0.000  0.00  0.00    +0.005 C 
ATOM      2  C   LIG    1        0.402  -3.000   0.000  0.00  0.00    -0.005 C 
ENDROOT
TORSDOF 0
REMARK  Name = molecules/WGWPRVFKDLAUQJ-MITYVQBRSA-N.pdb
REMARK                            x       y       z     vdW  Elec       q    Type
REMARK                         _______ _______ _______ _____ _____    ______ ____
ROOT
ATOM      1  O   HOH    1        4.500  -5.196   0.000  0.00  0.00    +0.000 OA
ENDROOT
TORSDOF 0
REMARK  Name = molecules/WGWPRVFKDLAUQJ-MITYVQBRSA-N.pdb
REMARK                            x       y       z     vdW  Elec       q    Type
REMARK                         _______ _______ _______ _____ _____    ______ ____
ROOT
ATOM      1  C   LIG    1        4.299  -7.044   0.000  0.00  0.00    +0.000 C 
ENDROOT
TORSDOF 0
REMARK  Name = molecules/WGWPRVFKDLAUQJ-MITYVQBRSA-N.pdb
REMARK                            x       y       z     vdW  Elec       q    Type
REMARK                         _______ _______ _______ _____ _____    ______ ____
ROOT
ATOM      1  C   LIG    1       -0.897 -10.044   0.000  0.00  0.00    -0.004 C 
ATOM      2  C   LIG    1        0.054 -10.995   0.000  0.00  0.00    +0.004 C 
ENDROOT
TORSDOF 0
REMARK  Name = molecules/WGWPRVFKDLAUQJ-MITYVQBRSA-N.pdb
REMARK                            x       y       z     vdW  Elec       q    Type
REMARK                         _______ _______ _______ _____ _____    ______ ____
ROOT
ATOM      1  C   LIG    1        1.701  -8.544   0.000  0.00  0.00    +0.000 C 
ENDROOT
TORSDOF 0
REMARK  Name = molecules/WGWPRVFKDLAUQJ-MITYVQBRSA-N.pdb
REMARK                            x       y       z     vdW  Elec       q    Type
REMARK                         _______ _______ _______ _____ _____    ______ ____
ROOT
ATOM      1  C   LIG    1        3.000  -7.794   0.000  0.00  0.00    +0.018 C 
ATOM      2  C   LIG    1        2.652  -6.897   0.000  0.00  0.00    -0.018 C 
ENDROOT
TORSDOF 0
REMARK  Name = molecules/WGWPRVFKDLAUQJ-MITYVQBRSA-N.pdb
REMARK                            x       y       z     vdW  Elec       q    Type
REMARK                         _______ _______ _______ _____ _____    ______ ____
ROOT
ATOM      1  C   LIG    1       -0.348  -7.995   0.000  0.00  0.00    -0.000 C 
ENDROOT
TORSDOF 0
REMARK  Name = molecules/WGWPRVFKDLAUQJ-MITYVQBRSA-N.pdb
REMARK                            x       y       z     vdW  Elec       q    Type
REMARK                         _______ _______ _______ _____ _____    ______ ____
ROOT
ATOM      1  C   LIG    1        0.402  -9.294   0.000  0.00  0.00    +0.000 C 
ENDROOT
TORSDOF 0
REMARK  Name = molecules/WGWPRVFKDLAUQJ-MITYVQBRSA-N.pdb
REMARK                            x       y       z     vdW  Elec       q    Type
REMARK                         _______ _______ _______ _____ _____    ______ ____
ROOT
ATOM      1  O   HOH    1        4.662  -5.589   0.000  0.00  0.00    +0.000 OA
ENDROOT
TORSDOF 0
REMARK  Name = molecules/WGWPRVFKDLAUQJ-MITYVQBRSA-N.pdb
REMARK                            x       y       z     vdW  Elec       q    Type
REMARK                         _______ _______ _______ _____ _____    ______ ____
ROOT
ATOM      1  C   LIG    1        8.196  -6.294   0.000  0.00  0.00    +0.000 C 
ENDROOT
TORSDOF 0
REMARK  Name = molecules/WGWPRVFKDLAUQJ-MITYVQBRSA-N.pdb
REMARK                            x       y       z     vdW  Elec       q    Type
REMARK                         _______ _______ _______ _____ _____    ______ ____
ROOT
ATOM      1  C   LIG    1       10.044  -4.995   0.000  0.00  0.00    +0.000 C 
ENDROOT
TORSDOF 0
REMARK  Name = molecules/WGWPRVFKDLAUQJ-MITYVQBRSA-N.pdb
REMARK                            x       y       z     vdW  Elec       q    Type
REMARK                         _______ _______ _______ _____ _____    ______ ____
ROOT
ATOM      1  C   LIG    1       11.544  -7.593   0.000  0.00  0.00    +0.000 C 
ENDROOT
TORSDOF 0
REMARK  Name = molecules/WGWPRVFKDLAUQJ-MITYVQBRSA-N.pdb
REMARK                            x       y       z     vdW  Elec       q    Type
REMARK                         _______ _______ _______ _____ _____    ______ ____
ROOT
ATOM      1  C   LIG    1       12.294  -8.892   0.000  0.00  0.00    +0.000 C 
ENDROOT
TORSDOF 0
REMARK  Name = molecules/WGWPRVFKDLAUQJ-MITYVQBRSA-N.pdb
REMARK                            x       y       z     vdW  Elec       q    Type
REMARK                         _______ _______ _______ _____ _____    ______ ____
ROOT
ATOM      1  C   LIG    1       13.044 -10.191   0.000  0.00  0.00    +0.000 C 
ENDROOT
TORSDOF 0
REMARK  Name = molecules/WGWPRVFKDLAUQJ-MITYVQBRSA-N.pdb
REMARK                            x       y       z     vdW  Elec       q    Type
REMARK                         _______ _______ _______ _____ _____    ______ ____
ROOT
ATOM      1  N   LIG    1       14.544 -10.191   0.000  0.00  0.00    -0.244 NA
ATOM      2  C   LIG    1       15.093 -11.142   0.000  0.00  0.00    +0.103 C 
ATOM      3  H   LIG    1       15.422  -9.704   0.000  0.00  0.00    +0.141 HD
ENDROOT
TORSDOF 0
REMARK  Name = molecules/WGWPRVFKDLAUQJ-MITYVQBRSA-N.pdb
REMARK                            x       y       z     vdW  Elec       q    Type
REMARK                         _______ _______ _______ _____ _____    ______ ____
ROOT
ATOM      1  O   LIG    1       12.142 -11.389   0.000  0.00  0.00    -0.253 OA
ATOM      2  H   LIG    1       11.196 -11.892   0.000  0.00  0.00    +0.253 HD
ENDROOT
BRANCH   1   3
ATOM      3  O   LIG    1       11.678 -10.787   0.000  0.00  0.00    -0.253 OA
ATOM      4  H   LIG    1       11.350 -10.058   0.000  0.00  0.00    +0.253 HD
ENDBRANCH   1   3
TORSDOF 1
REMARK  Name = molecules/WGWPRVFKDLAUQJ-MITYVQBRSA-N.pdb
REMARK                            x       y       z     vdW  Elec       q    Type
REMARK                         _______ _______ _______ _____ _____    ______ ____
ROOT
ATOM      1  C   LIG    1       10.794  -6.294   0.000  0.00  0.00    -0.000 C 
ENDROOT
TORSDOF 0
REMARK  Name = molecules/WGWPRVFKDLAUQJ-MITYVQBRSA-N.pdb
REMARK                            x       y       z     vdW  Elec       q    Type
REMARK                         _______ _______ _______ _____ _____    ______ ____
ROOT
ATOM      1  C   LIG    1        8.745  -3.147   0.000  0.00  0.00    +0.000 C 
ENDROOT
TORSDOF 0
REMARK  Name = molecules/WGWPRVFKDLAUQJ-MITYVQBRSA-N.pdb
REMARK                            x       y       z     vdW  Elec       q    Type
REMARK                         _______ _______ _______ _____ _____    ______ ____
ROOT
ATOM      1  C   LIG    1       13.941  -0.147   0.000  0.00  0.00    -0.000 C 
ENDROOT
TORSDOF 0
REMARK  Name = molecules/WGWPRVFKDLAUQJ-MITYVQBRSA-N.pdb
REMARK                            x       y       z     vdW  Elec       q    Type
REMARK                         _______ _______ _______ _____ _____    ______ ____
ROOT
ATOM      1  C   LIG    1       10.044  -2.397   0.000  0.00  0.00    +0.000 C 
ENDROOT
TORSDOF 0
REMARK  Name = molecules/WGWPRVFKDLAUQJ-MITYVQBRSA-N.pdb
REMARK                            x       y       z     vdW  Elec       q    Type
REMARK                         _______ _______ _______ _____ _____    ______ ____
ROOT
ATOM      1  C   LIG    1       12.642  -0.897   0.000  0.00  0.00    +0.000 C 
ENDROOT
TORSDOF 0
REMARK  Name = molecules/WGWPRVFKDLAUQJ-MITYVQBRSA-N.pdb
REMARK                            x       y       z     vdW  Elec       q    Type
REMARK                         _______ _______ _______ _____ _____    ______ ____
ROOT
ATOM      1  O   HOH    1        8.641  -1.651   0.000  0.00  0.00    +0.000 OA
ENDROOT
TORSDOF 0
REMARK  Name = molecules/WGWPRVFKDLAUQJ-MITYVQBRSA-N.pdb
REMARK                            x       y       z     vdW  Elec       q    Type
REMARK                         _______ _______ _______ _____ _____    ______ ____
ROOT
ATOM      1  C   LIG    1        6.696  -4.098   0.000  0.00  0.00    +0.262 C 
ATOM      2  O   LIG    1        6.101  -3.574   0.000  0.00  0.00    -0.478 OA
ENDROOT
BRANCH   2   3
ATOM      3  C   LIG    1        5.946  -2.799   0.000  0.00  0.00    +0.155 C 
ATOM      4  C   LIG    1        5.397  -2.250   0.000  0.00  0.00    +0.061 C 
ENDBRANCH   2   3
TORSDOF 1
REMARK  Name = molecules/WGWPRVFKDLAUQJ-MITYVQBRSA-N.pdb
REMARK                            x       y       z     vdW  Elec       q    Type
REMARK                         _______ _______ _______ _____ _____    ______ ____
ROOT
ATOM      1  O   LIG    1        8.946  -7.995   0.000  0.00  0.00    -0.225 OA
ATOM      2  C   LIG    1        9.495  -8.544   0.000  0.00  0.00    +0.225 C 
ENDROOT
TORSDOF 0
REMARK  Name = molecules/WGWPRVFKDLAUQJ-MITYVQBRSA-N.pdb
REMARK                            x       y       z     vdW  Elec       q    Type
REMARK                         _______ _______ _______ _____ _____    ______ ____
ROOT
ATOM      1  O   HOH    1        5.241  -3.735   0.000  0.00  0.00    +0.000 OA
ENDROOT
TORSDOF 0
REMARK  Name = molecules/WGWPRVFKDLAUQJ-MITYVQBRSA-N.pdb
REMARK                            x       y       z     vdW  Elec       q    Type
REMARK                         _______ _______ _______ _____ _____    ______ ____
ROOT
ATOM      1  C   LIG    1        7.995  -0.750   0.000  0.00  0.00    +0.000 C 
ENDROOT
TORSDOF 0
REMARK  Name = molecules/WGWPRVFKDLAUQJ-MITYVQBRSA-N.pdb
REMARK                            x       y       z     vdW  Elec       q    Type
REMARK                         _______ _______ _______ _____ _____    ______ ____
ROOT
ATOM      1  C   LIG    1        6.696  -1.500   0.000  0.00  0.00    +0.000 C 
ENDROOT
TORSDOF 0
REMARK  Name = molecules/WGWPRVFKDLAUQJ-MITYVQBRSA-N.pdb
REMARK                            x       y       z     vdW  Elec       q    Type
REMARK                         _______ _______ _______ _____ _____    ______ ____
ROOT
ATOM      1  C   LIG    1        3.549  -3.549   0.000  0.00  0.00    +0.000 C 
ENDROOT
TORSDOF 0
REMARK  Name = molecules/WGWPRVFKDLAUQJ-MITYVQBRSA-N.pdb
REMARK                            x       y       z     vdW  Elec       q    Type
REMARK                         _______ _______ _______ _____ _____    ______ ____
ROOT
ATOM      1  C   LIG    1        2.049  -0.951   0.000  0.00  0.00    +0.005 C 
ATOM      2  C   LIG    1        1.701  -2.250   0.000  0.00  0.00    -0.005 C 
ATOM      3  C   LIG    1        2.799  -2.250   0.000  0.00  0.00    -0.000 C 
ENDROOT
TORSDOF 0
REMARK  Name = molecules/WGWPRVFKDLAUQJ-MITYVQBRSA-N.pdb
REMARK                            x       y       z     vdW  Elec       q    Type
REMARK                         _______ _______ _______ _____ _____    ______ ____
ROOT
ATOM      1  C   LIG    1        4.500  -5.598   0.000  0.00  0.00    +0.000 C 
ENDROOT
TORSDOF 0
REMARK  Name = molecules/WGWPRVFKDLAUQJ-MITYVQBRSA-N.pdb
REMARK                            x       y       z     vdW  Elec       q    Type
REMARK                         _______ _______ _______ _____ _____    ______ ____
ROOT
ATOM      1  C   LIG    1        7.098  -4.098   0.000  0.00  0.00    +0.000 C 
ENDROOT
TORSDOF 0
REMARK  Name = molecules/WGWPRVFKDLAUQJ-MITYVQBRSA-N.pdb
REMARK                            x       y       z     vdW  Elec       q    Type
REMARK                         _______ _______ _______ _____ _____    ______ ____
ROOT
ATOM      1  C   LIG    1        5.799  -4.848   0.000  0.00  0.00    +0.000 C 
ENDROOT
TORSDOF 0
REMARK  Name = molecules/WGWPRVFKDLAUQJ-MITYVQBRSA-N.pdb
REMARK                            x       y       z     vdW  Elec       q    Type
REMARK                         _______ _______ _______ _____ _____    ______ ____
ROOT
ATOM      1  C   LIG    1       10.995  -1.848   0.000  0.00  0.00    +0.000 C 
ENDROOT
TORSDOF 0
REMARK  Name = molecules/WGWPRVFKDLAUQJ-MITYVQBRSA-N.pdb
REMARK                            x       y       z     vdW  Elec       q    Type
REMARK                         _______ _______ _______ _____ _____    ______ ____
ROOT
ATOM      1  O   HOH    1        4.317  -7.087   0.000  0.00  0.00    +0.000 OA
ENDROOT
TORSDOF 0
REMARK  Name = molecules/WGWPRVFKDLAUQJ-MITYVQBRSA-N.pdb
REMARK                            x       y       z     vdW  Elec       q    Type
REMARK                         _______ _______ _______ _____ _____    ______ ____
ROOT
ATOM      1  C   LIG    1       -0.348  -1.701   0.000  0.00  0.00    +0.000 C 
ENDROOT
TORSDOF 0
REMARK  Name = molecules/WGWPRVFKDLAUQJ-MITYVQBRSA-N.pdb
REMARK                            x       y       z     vdW  Elec       q    Type
REMARK                         _______ _______ _______ _____ _____    ______ ____
ROOT
ATOM      1  O   HOH    1        4.141  -7.080   0.000  0.00  0.00    +0.000 OA
ENDROOT
TORSDOF 0
REMARK  Name = molecules/WGWPRVFKDLAUQJ-MITYVQBRSA-N.pdb
REMARK                            x       y       z     vdW  Elec       q    Type
REMARK                         _______ _______ _______ _____ _____    ______ ____
ROOT
ATOM      1  C   LIG    1       -1.245 -11.745   0.000  0.00  0.00    -0.000 C 
ENDROOT
TORSDOF 0
REMARK  Name = molecules/WGWPRVFKDLAUQJ-MITYVQBRSA-N.pdb
REMARK                            x       y       z     vdW  Elec       q    Type
REMARK                         _______ _______ _______ _____ _____    ______ ____
ROOT
ATOM      1  C   LIG    1        1.353 -10.245   0.000  0.00  0.00    -0.000 C 
ENDROOT
TORSDOF 0
REMARK  Name = molecules/WGWPRVFKDLAUQJ-MITYVQBRSA-N.pdb
REMARK                            x       y       z     vdW  Elec       q    Type
REMARK                         _______ _______ _______ _____ _____    ______ ____
ROOT
ATOM      1  C   LIG    1        2.652  -9.495   0.000  0.00  0.00    +0.000 C 
ENDROOT
TORSDOF 0
REMARK  Name = molecules/WGWPRVFKDLAUQJ-MITYVQBRSA-N.pdb
REMARK                            x       y       z     vdW  Elec       q    Type
REMARK                         _______ _______ _______ _____ _____    ______ ____
ROOT
ATOM      1  C   LIG    1       -0.696  -9.696   0.000  0.00  0.00    +0.000 C 
ENDROOT
TORSDOF 0
REMARK  Name = molecules/WGWPRVFKDLAUQJ-MITYVQBRSA-N.pdb
REMARK                            x       y       z     vdW  Elec       q    Type
REMARK                         _______ _______ _______ _____ _____    ______ ____
ROOT
ATOM      1  O   HOH    1        2.707  -7.907   0.000  0.00  0.00    -0.253 OA
ATOM      2  H   HOH    0        2.302  -8.396   0.000  0.00  0.00    +0.253 HD
ENDROOT
TORSDOF 0
REMARK  Name = molecules/WGWPRVFKDLAUQJ-MITYVQBRSA-N.pdb
REMARK                            x       y       z     vdW  Elec       q    Type
REMARK                         _______ _______ _______ _____ _____    ______ ____
ROOT
ATOM      1  C   LIG    1        5.799  -7.446   0.000  0.00  0.00    +0.000 C 
ENDROOT
TORSDOF 0
REMARK  Name = molecules/WGWPRVFKDLAUQJ-MITYVQBRSA-N.pdb
REMARK                            x       y       z     vdW  Elec       q    Type
REMARK                         _______ _______ _______ _____ _____    ______ ____
ROOT
ATOM      1  C   LIG    1        7.299 -10.044   0.000  0.00  0.00    -0.009 C 
ATOM      2  C   LIG    1        8.196  -9.294   0.000  0.00  0.00    +0.009 C 
ENDROOT
TORSDOF 0
REMARK  Name = molecules/WGWPRVFKDLAUQJ-MITYVQBRSA-N.pdb
REMARK                            x       y       z     vdW  Elec       q    Type
REMARK                         _______ _______ _______ _____ _____    ______ ____
ROOT
ATOM      1  C   LIG    1        8.049 -11.343   0.000  0.00  0.00    +0.108 C 
ATOM      2  C   LIG    1        8.799 -12.642   0.000  0.00  0.00    +0.252 C 
ATOM      3  O   LIG    1       10.299 -12.642   0.000  0.00  0.00    -0.272 OA
ATOM      4  N   LIG    1        8.049 -13.941   0.000  0.00  0.00    -0.088 NA
ENDROOT
TORSDOF 0
REMARK  Name = molecules/WGWPRVFKDLAUQJ-MITYVQBRSA-N.pdb
REMARK                            x       y       z     vdW  Elec       q    Type
REMARK                         _______ _______ _______ _____ _____    ______ ____
ROOT
ATOM      1  C   LIG    1        6.549  -8.745   0.000  0.00  0.00    +0.000 C 
ENDROOT
TORSDOF 0
REMARK  Name = molecules/WGWPRVFKDLAUQJ-MITYVQBRSA-N.pdb
REMARK                            x       y       z     vdW  Elec       q    Type
REMARK                         _______ _______ _______ _____ _____    ______ ____
ROOT
ATOM      1  O   HOH    1        6.965  -6.502   0.000  0.00  0.00    -0.253 OA
ATOM      2  H   HOH    0        6.663  -5.928   0.000  0.00  0.00    +0.253 HD
ENDROOT
TORSDOF 0
REMARK  Name = molecules/WGWPRVFKDLAUQJ-MITYVQBRSA-N.pdb
REMARK                            x       y       z     vdW  Elec       q    Type
REMARK                         _______ _______ _______ _____ _____    ______ ____
ROOT
ATOM      1  C   LIG    1        4.848  -5.397   0.000  0.00  0.00    +0.000 C 
ATOM      2  C   LIG    1        5.397  -4.848   0.000  0.00  0.00    +0.000 C 
ENDROOT
TORSDOF 0
REMARK  Name = molecules/WGWPRVFKDLAUQJ-MITYVQBRSA-N.pdb
REMARK                            x       y       z     vdW  Elec       q    Type
REMARK                         _______ _______ _______ _____ _____    ______ ____
ROOT
ATOM      1  C   LIG    1        2.250  -6.897   0.000  0.00  0.00    +0.000 C 
ENDROOT
TORSDOF 0
REMARK  Name = molecules/WGWPRVFKDLAUQJ-MITYVQBRSA-N.pdb
REMARK                            x       y       z     vdW  Elec       q    Type
REMARK                         _______ _______ _______ _____ _____    ______ ____
ROOT
ATOM      1  O   HOH    1        0.951  -9.147   0.000  0.00  0.00    +0.000 OA
ENDROOT
TORSDOF 0
REMARK  Name = molecules/WGWPRVFKDLAUQJ-MITYVQBRSA-N.pdb
REMARK                            x       y       z     vdW  Elec       q    Type
REMARK                         _______ _______ _______ _____ _____    ______ ____
ROOT
ATOM      1  O   HOH    1       -0.348  -6.897   0.000  0.00  0.00    -0.410 OA
ATOM      2  H   HOH    0       -1.098  -6.696   0.000  0.00  0.00    +0.205 HD
ATOM      3  H   HOH    0        0.447  -6.723   0.000  0.00  0.00    +0.205 HD
ENDROOT
TORSDOF 0
REMARK  Name = molecules/WGWPRVFKDLAUQJ-MITYVQBRSA-N.pdb
REMARK                            x       y       z     vdW  Elec       q    Type
REMARK                         _______ _______ _______ _____ _____    ______ ____
ROOT
ATOM      1  C   LIG    1        3.549  -6.147   0.000  0.00  0.00    +0.000 C 
ATOM      2  C   LIG    1        4.098  -5.598   0.000  0.00  0.00    +0.000 C 
ENDROOT
TORSDOF 0
REMARK  Name = molecules/WGWPRVFKDLAUQJ-MITYVQBRSA-N.pdb
REMARK                            x       y       z     vdW  Elec       q    Type
REMARK                         _______ _______ _______ _____ _____    ______ ____
ROOT
ATOM      1  C   LIG    1        8.196  -6.696   0.000  0.00  0.00    +0.000 C 
ENDROOT
TORSDOF 0
REMARK  Name = molecules/WGWPRVFKDLAUQJ-MITYVQBRSA-N.pdb
REMARK                            x       y       z     vdW  Elec       q    Type
REMARK                         _______ _______ _______ _____ _____    ______ ____
ROOT
ATOM      1  C   LIG    1        6.696  -4.098   0.000  0.00  0.00    +0.000 C 
ENDROOT
TORSDOF 0
REMARK  Name = molecules/WGWPRVFKDLAUQJ-MITYVQBRSA-N.pdb
REMARK                            x       y       z     vdW  Elec       q    Type
REMARK                         _______ _______ _______ _____ _____    ______ ____
ROOT
ATOM      1  C   LIG    1        7.446  -5.397   0.000  0.00  0.00    +0.000 C 
ENDROOT
TORSDOF 0
REMARK  Name = molecules/WGWPRVFKDLAUQJ-MITYVQBRSA-N.pdb
REMARK                            x       y       z     vdW  Elec       q    Type
REMARK                         _______ _______ _______ _____ _____    ______ ____
ROOT
ATOM      1  O   HOH    1        9.521  -7.401   0.000  0.00  0.00    -0.253 OA
ATOM      2  H   HOH    0        9.695  -6.644   0.000  0.00  0.00    +0.253 HD
ENDROOT
TORSDOF 0
REMARK  Name = molecules/WGWPRVFKDLAUQJ-MITYVQBRSA-N.pdb
REMARK                            x       y       z     vdW  Elec       q    Type
REMARK                         _______ _______ _______ _____ _____    ______ ____
ROOT
ATOM      1  C   LIG    1        5.598 -10.794   0.000  0.00  0.00    +0.000 C 
ENDROOT
TORSDOF 0
REMARK  Name = molecules/WGWPRVFKDLAUQJ-MITYVQBRSA-N.pdb
REMARK                            x       y       z     vdW  Elec       q    Type
REMARK                         _______ _______ _______ _____ _____    ______ ____
ROOT
ATOM      1  C   LIG    1        6.897 -10.044   0.000  0.00  0.00    +0.000 C 
ENDROOT
TORSDOF 0
REMARK  Name = molecules/WGWPRVFKDLAUQJ-MITYVQBRSA-N.pdb
REMARK                            x       y       z     vdW  Elec       q    Type
REMARK                         _______ _______ _______ _____ _____    ______ ____
ROOT
ATOM      1  C   LIG    1        4.299 -13.044   0.000  0.00  0.00    +0.000 C 
ENDROOT
TORSDOF 0
REMARK  Name = molecules/WGWPRVFKDLAUQJ-MITYVQBRSA-N.pdb
REMARK                            x       y       z     vdW  Elec       q    Type
REMARK                         _______ _______ _______ _____ _____    ______ ____
ROOT
ATOM      1  S   LIG    1        4.299 -11.544   0.000  0.00  0.00    -0.196 S 
ATOM      2  H   LIG    1        3.402 -10.794   0.000  0.00  0.00    +0.098 HD
ATOM      3  H   LIG    1        4.712 -10.896   0.000  0.00  0.00    +0.098 HD
ENDROOT
TORSDOF 0
REMARK  Name = molecules/WGWPRVFKDLAUQJ-MITYVQBRSA-N.pdb
REMARK                            x       y       z     vdW  Elec       q    Type
REMARK                         _______ _______ _______ _____ _____    ______ ____
ROOT
ATOM      1  C   LIG    1       12.843  -9.843   0.000  0.00  0.00    -0.000 C 
ENDROOT
TORSDOF 0
REMARK  Name = molecules/WGWPRVFKDLAUQJ-MITYVQBRSA-N.pdb
REMARK                            x       y       z     vdW  Elec       q    Type
REMARK                         _______ _______ _______ _____ _____    ______ ____
ROOT
ATOM      1  C   LIG    1       11.343  -7.245   0.000  0.00  0.00    +0.000 C 
ENDROOT
TORSDOF 0
REMARK  Name = molecules/WGWPRVFKDLAUQJ-MITYVQBRSA-N.pdb
REMARK                            x       y       z     vdW  Elec       q    Type
REMARK                         _______ _______ _______ _____ _____    ______ ____
ROOT
ATOM      1  C   LIG    1       12.093  -8.544   0.000  0.00  0.00    +0.000 C 
ENDROOT
TORSDOF 0
REMARK  Name = molecules/WGWPRVFKDLAUQJ-MITYVQBRSA-N.pdb
REMARK                            x       y       z     vdW  Elec       q    Type
REMARK                         _______ _______ _______ _____ _____    ______ ____
ROOT
ATOM      1  C   LIG    1       13.794 -11.892   0.000  0.00  0.00    +0.000 C 
ENDROOT
TORSDOF 0
REMARK  Name = molecules/WGWPRVFKDLAUQJ-MITYVQBRSA-N.pdb
REMARK                            x       y       z     vdW  Elec       q    Type
REMARK                         _______ _______ _______ _____ _____    ______ ____
ROOT
ATOM      1  N   LIG    1       20.289  -8.142   0.000  0.00  0.00    -0.102 NA
ENDROOT
BRANCH   1   2
ATOM      2  C   LIG    1       21.588  -8.892   0.000  0.00  0.00    +0.534 C 
ATOM      3  N   LIG    1       21.588 -10.392   0.000  0.00  0.00    +0.135 NA
ATOM      4  N   LIG    1       22.887  -8.142   0.000  0.00  0.00    +0.135 NA
ENDBRANCH   1   2
BRANCH   1   5
ATOM      5  C   LIG    1       18.990  -8.892   0.000  0.00  0.00    +0.244 C 
BRANCH   5   7
ATOM      6  C   LIG    1       16.392 -10.392   0.000  0.00  0.00    -0.001 C 
ATOM      7  C   LIG    1       17.691  -9.642   0.000  0.00  0.00    +0.045 C 
ENDBRANCH   5   7
ENDBRANCH   1   5
TORSDOF 3
REMARK  Name = molecules/WGWPRVFKDLAUQJ-MITYVQBRSA-N.pdb
REMARK                            x       y       z     vdW  Elec       q    Type
REMARK                         _______ _______ _______ _____ _____    ______ ____
ROOT
ATOM      1  O   HOH    1       13.794 -13.392   0.000  0.00  0.00    +0.000 OA
ENDROOT
TORSDOF 0
REMARK  Name = molecules/WGWPRVFKDLAUQJ-MITYVQBRSA-N.pdb
REMARK                            x       y       z     vdW  Elec       q    Type
REMARK                         _______ _______ _______ _____ _____    ______ ____
ROOT
ATOM      1  H   UNK    1        8.690  -1.736   0.000  0.00  0.00    +0.000 HD
ENDROOT
TORSDOF 0
REMARK  Name = molecules/WGWPRVFKDLAUQJ-MITYVQBRSA-N.pdb
REMARK                            x       y       z     vdW  Elec       q    Type
REMARK                         _______ _______ _______ _____ _____    ______ ____
ROOT
ATOM      1  H   UNK    1        6.248   0.006   0.000  0.00  0.00    +0.000 HD
ENDROOT
TORSDOF 0
REMARK  Name = molecules/WGWPRVFKDLAUQJ-MITYVQBRSA-N.pdb
REMARK                            x       y       z     vdW  Elec       q    Type
REMARK                         _______ _______ _______ _____ _____    ______ ____
ROOT
ATOM      1  H   UNK    1        9.999  -0.522   0.000  0.00  0.00    +0.000 HD
ENDROOT
TORSDOF 0
REMARK  Name = molecules/WGWPRVFKDLAUQJ-MITYVQBRSA-N.pdb
REMARK                            x       y       z     vdW  Elec       q    Type
REMARK                         _______ _______ _______ _____ _____    ______ ____
ROOT
ATOM      1  H   UNK    1        0.396  -6.046   0.000  0.00  0.00    +0.000 HD
ENDROOT
TORSDOF 0
REMARK  Name = molecules/WGWPRVFKDLAUQJ-MITYVQBRSA-N.pdb
REMARK                            x       y       z     vdW  Elec       q    Type
REMARK                         _______ _______ _______ _____ _____    ______ ____
ROOT
ATOM      1  H   UNK    1        0.904  -0.133   0.000  0.00  0.00    +0.000 HD
ENDROOT
TORSDOF 0
REMARK  Name = molecules/WGWPRVFKDLAUQJ-MITYVQBRSA-N.pdb
REMARK                            x       y       z     vdW  Elec       q    Type
REMARK                         _______ _______ _______ _____ _____    ______ ____
ROOT
ATOM      1  H   UNK    1        5.449  -0.349   0.000  0.00  0.00    +0.000 HD
ENDROOT
TORSDOF 0
REMARK  Name = molecules/WGWPRVFKDLAUQJ-MITYVQBRSA-N.pdb
REMARK                            x       y       z     vdW  Elec       q    Type
REMARK                         _______ _______ _______ _____ _____    ______ ____
ROOT
ATOM      1  H   UNK    1        0.750  -6.495   0.000  0.00  0.00    +0.000 HD
ENDROOT
TORSDOF 0
REMARK  Name = molecules/WGWPRVFKDLAUQJ-MITYVQBRSA-N.pdb
REMARK                            x       y       z     vdW  Elec       q    Type
REMARK                         _______ _______ _______ _____ _____    ______ ____
ROOT
ATOM      1  H   UNK    1        4.461  -0.045   0.000  0.00  0.00    +0.000 HD
ENDROOT
TORSDOF 0
REMARK  Name = molecules/WGWPRVFKDLAUQJ-MITYVQBRSA-N.pdb
REMARK                            x       y       z     vdW  Elec       q    Type
REMARK                         _______ _______ _______ _____ _____    ______ ____
ROOT
ATOM      1  H   UNK    1        5.101  -2.050   0.000  0.00  0.00    +0.000 HD
ENDROOT
TORSDOF 0
REMARK  Name = molecules/WGWPRVFKDLAUQJ-MITYVQBRSA-N.pdb
REMARK                            x       y       z     vdW  Elec       q    Type
REMARK                         _______ _______ _______ _____ _____    ______ ____
ROOT
ATOM      1  H   UNK    1        3.713  -8.827   0.000  0.00  0.00    +0.000 HD
ENDROOT
TORSDOF 0
REMARK  Name = molecules/WGWPRVFKDLAUQJ-MITYVQBRSA-N.pdb
REMARK                            x       y       z     vdW  Elec       q    Type
REMARK                         _______ _______ _______ _____ _____    ______ ____
ROOT
ATOM      1  H   UNK    1       10.794 -10.794   0.000  0.00  0.00    +0.000 HD
ENDROOT
TORSDOF 0
REMARK  Name = molecules/WGWPRVFKDLAUQJ-MITYVQBRSA-N.pdb
REMARK                            x       y       z     vdW  Elec       q    Type
REMARK                         _______ _______ _______ _____ _____    ______ ____
ROOT
ATOM      1  H   UNK    1       15.093  -8.544   0.000  0.00  0.00    +0.000 HD
ENDROOT
TORSDOF 0
REMARK  Name = molecules/WGWPRVFKDLAUQJ-MITYVQBRSA-N.pdb
REMARK                            x       y       z     vdW  Elec       q    Type
REMARK                         _______ _______ _______ _____ _____    ______ ____
ROOT
ATOM      1  H   UNK    1        6.514   0.917   0.000  0.00  0.00    +0.000 HD
ENDROOT
TORSDOF 0
REMARK  Name = molecules/WGWPRVFKDLAUQJ-MITYVQBRSA-N.pdb
REMARK                            x       y       z     vdW  Elec       q    Type
REMARK                         _______ _______ _______ _____ _____    ______ ____
ROOT
ATOM      1  H   UNK    1        9.193   2.055   0.000  0.00  0.00    +0.000 HD
ENDROOT
TORSDOF 0
REMARK  Name = molecules/WGWPRVFKDLAUQJ-MITYVQBRSA-N.pdb
REMARK                            x       y       z     vdW  Elec       q    Type
REMARK                         _______ _______ _______ _____ _____    ______ ____
ROOT
ATOM      1  H   UNK    1        3.495   6.348   0.000  0.00  0.00    +0.000 HD
ENDROOT
TORSDOF 0
REMARK  Name = molecules/WGWPRVFKDLAUQJ-MITYVQBRSA-N.pdb
REMARK                            x       y       z     vdW  Elec       q    Type
REMARK                         _______ _______ _______ _____ _____    ______ ____
ROOT
ATOM      1  H   UNK    1        8.508  -3.327   0.000  0.00  0.00    +0.000 HD
ENDROOT
TORSDOF 0
REMARK  Name = molecules/WGWPRVFKDLAUQJ-MITYVQBRSA-N.pdb
REMARK                            x       y       z     vdW  Elec       q    Type
REMARK                         _______ _______ _______ _____ _____    ______ ____
ROOT
ATOM      1  H   UNK    1        9.849   0.386   0.000  0.00  0.00    +0.000 HD
ENDROOT
TORSDOF 0
REMARK  Name = molecules/WGWPRVFKDLAUQJ-MITYVQBRSA-N.pdb
REMARK                            x       y       z     vdW  Elec       q    Type
REMARK                         _______ _______ _______ _____ _____    ______ ____
ROOT
ATOM      1  H   UNK    1       11.807   1.681   0.000  0.00  0.00    +0.000 HD
ENDROOT
TORSDOF 0
REMARK  Name = molecules/WGWPRVFKDLAUQJ-MITYVQBRSA-N.pdb
REMARK                            x       y       z     vdW  Elec       q    Type
REMARK                         _______ _______ _______ _____ _____    ______ ____
ROOT
ATOM      1  H   UNK    1       10.593   4.152   0.000  0.00  0.00    +0.000 HD
ENDROOT
TORSDOF 0
REMARK  Name = molecules/WGWPRVFKDLAUQJ-MITYVQBRSA-N.pdb
REMARK                            x       y       z     vdW  Elec       q    Type
REMARK                         _______ _______ _______ _____ _____    ______ ____
ROOT
ATOM      1  H   UNK    1       17.142  -4.191   0.000  0.00  0.00    +0.000 HD
ENDROOT
TORSDOF 0
REMARK  Name = molecules/WGWPRVFKDLAUQJ-MITYVQBRSA-N.pdb
REMARK                            x       y       z     vdW  Elec       q    Type
REMARK                         _______ _______ _______ _____ _____    ______ ____
ROOT
ATOM      1  H   UNK    1       15.679  -5.023   0.000  0.00  0.00    +0.000 HD
ENDROOT
TORSDOF 0
REMARK  Name = molecules/WGWPRVFKDLAUQJ-MITYVQBRSA-N.pdb
REMARK                            x       y       z     vdW  Elec       q    Type
REMARK                         _______ _______ _______ _____ _____    ______ ____
ROOT
ATOM      1  H   UNK    1       17.142  -5.691   0.000  0.00  0.00    +0.000 HD
ENDROOT
TORSDOF 0
REMARK  Name = molecules/WGWPRVFKDLAUQJ-MITYVQBRSA-N.pdb
REMARK                            x       y       z     vdW  Elec       q    Type
REMARK                         _______ _______ _______ _____ _____    ______ ____
ROOT
ATOM      1  H   UNK    1       16.746  -7.639   0.000  0.00  0.00    +0.000 HD
ENDROOT
TORSDOF 0
REMARK  Name = molecules/WGWPRVFKDLAUQJ-MITYVQBRSA-N.pdb
REMARK                            x       y       z     vdW  Elec       q    Type
REMARK                         _______ _______ _______ _____ _____    ______ ____
ROOT
ATOM      1  H   UNK    1       15.816  -7.986   0.000  0.00  0.00    +0.000 HD
ENDROOT
TORSDOF 0
REMARK  Name = molecules/WGWPRVFKDLAUQJ-MITYVQBRSA-N.pdb
REMARK                            x       y       z     vdW  Elec       q    Type
REMARK                         _______ _______ _______ _____ _____    ______ ____
ROOT
ATOM      1  H   UNK    1       18.322  -1.831   0.000  0.00  0.00    +0.000 HD
ENDROOT
TORSDOF 0
REMARK  Name = molecules/WGWPRVFKDLAUQJ-MITYVQBRSA-N.pdb
REMARK                            x       y       z     vdW  Elec       q    Type
REMARK                         _______ _______ _______ _____ _____    ______ ____
ROOT
ATOM      1  H   UNK    1       15.642   2.505   0.000  0.00  0.00    +0.000 HD
ENDROOT
TORSDOF 0
REMARK  Name = molecules/WGWPRVFKDLAUQJ-MITYVQBRSA-N.pdb
REMARK                            x       y       z     vdW  Elec       q    Type
REMARK                         _______ _______ _______ _____ _____    ______ ____
ROOT
ATOM      1  H   UNK    1       13.710   1.614   0.000  0.00  0.00    +0.000 HD
ENDROOT
TORSDOF 0
REMARK  Name = molecules/WGWPRVFKDLAUQJ-MITYVQBRSA-N.pdb
REMARK                            x       y       z     vdW  Elec       q    Type
REMARK                         _______ _______ _______ _____ _____    ______ ____
ROOT
ATOM      1  H   UNK    1       11.693  -1.246   0.000  0.00  0.00    +0.000 HD
ENDROOT
TORSDOF 0
REMARK  Name = molecules/WGWPRVFKDLAUQJ-MITYVQBRSA-N.pdb
REMARK                            x       y       z     vdW  Elec       q    Type
REMARK                         _______ _______ _______ _____ _____    ______ ____
ROOT
ATOM      1  H   UNK    1        8.068  -6.787   0.000  0.00  0.00    +0.000 HD
ENDROOT
TORSDOF 0
REMARK  Name = molecules/WGWPRVFKDLAUQJ-MITYVQBRSA-N.pdb
REMARK                            x       y       z     vdW  Elec       q    Type
REMARK                         _______ _______ _______ _____ _____    ______ ____
ROOT
ATOM      1  H   UNK    1        9.943   0.756   0.000  0.00  0.00    +0.000 HD
ENDROOT
TORSDOF 0
REMARK  Name = molecules/WGWPRVFKDLAUQJ-MITYVQBRSA-N.pdb
REMARK                            x       y       z     vdW  Elec       q    Type
REMARK                         _______ _______ _______ _____ _____    ______ ____
ROOT
ATOM      1  H   UNK    1       -0.337  -5.741   0.000  0.00  0.00    +0.000 HD
ENDROOT
TORSDOF 0
REMARK  Name = molecules/WGWPRVFKDLAUQJ-MITYVQBRSA-N.pdb
REMARK                            x       y       z     vdW  Elec       q    Type
REMARK                         _______ _______ _______ _____ _____    ______ ____
ROOT
ATOM      1  H   UNK    1       -1.653  -3.101   0.000  0.00  0.00    +0.000 HD
ENDROOT
TORSDOF 0
REMARK  Name = molecules/WGWPRVFKDLAUQJ-MITYVQBRSA-N.pdb
REMARK                            x       y       z     vdW  Elec       q    Type
REMARK                         _______ _______ _______ _____ _____    ______ ____
ROOT
ATOM      1  H   UNK    1       -7.245  -6.549   0.000  0.00  0.00    +0.000 HD
ENDROOT
TORSDOF 0
REMARK  Name = molecules/WGWPRVFKDLAUQJ-MITYVQBRSA-N.pdb
REMARK                            x       y       z     vdW  Elec       q    Type
REMARK                         _______ _______ _______ _____ _____    ______ ____
ROOT
ATOM      1  H   UNK    1        3.696   1.500   0.000  0.00  0.00    +0.000 HD
ENDROOT
TORSDOF 0
REMARK  Name = molecules/WGWPRVFKDLAUQJ-MITYVQBRSA-N.pdb
REMARK                            x       y       z     vdW  Elec       q    Type
REMARK                         _______ _______ _______ _____ _____    ______ ____
ROOT
ATOM      1  H   UNK    1        3.028   2.635   0.000  0.00  0.00    +0.000 HD
ENDROOT
TORSDOF 0
REMARK  Name = molecules/WGWPRVFKDLAUQJ-MITYVQBRSA-N.pdb
REMARK                            x       y       z     vdW  Elec       q    Type
REMARK                         _______ _______ _______ _____ _____    ______ ____
ROOT
ATOM      1  H   UNK    1       -0.545   2.935   0.000  0.00  0.00    +0.000 HD
ENDROOT
TORSDOF 0
REMARK  Name = molecules/WGWPRVFKDLAUQJ-MITYVQBRSA-N.pdb
REMARK                            x       y       z     vdW  Elec       q    Type
REMARK                         _______ _______ _______ _____ _____    ______ ____
ROOT
ATOM      1  H   UNK    1        2.339   3.761   0.000  0.00  0.00    +0.000 HD
ENDROOT
TORSDOF 0
REMARK  Name = molecules/WGWPRVFKDLAUQJ-MITYVQBRSA-N.pdb
REMARK                            x       y       z     vdW  Elec       q    Type
REMARK                         _______ _______ _______ _____ _____    ______ ____
ROOT
ATOM      1  H   UNK    1       -3.603   3.348   0.000  0.00  0.00    +0.000 HD
ENDROOT
TORSDOF 0
REMARK  Name = molecules/WGWPRVFKDLAUQJ-MITYVQBRSA-N.pdb
REMARK                            x       y       z     vdW  Elec       q    Type
REMARK                         _______ _______ _______ _____ _____    ______ ____
ROOT
ATOM      1  H   UNK    1       -3.603   5.946   0.000  0.00  0.00    +0.000 HD
ENDROOT
TORSDOF 0
REMARK  Name = molecules/WGWPRVFKDLAUQJ-MITYVQBRSA-N.pdb
REMARK                            x       y       z     vdW  Elec       q    Type
REMARK                         _______ _______ _______ _____ _____    ______ ____
ROOT
ATOM      1  H   UNK    1        4.345   0.354   0.000  0.00  0.00    +0.000 HD
ENDROOT
TORSDOF 0
REMARK  Name = molecules/WGWPRVFKDLAUQJ-MITYVQBRSA-N.pdb
REMARK                            x       y       z     vdW  Elec       q    Type
REMARK                         _______ _______ _______ _____ _____    ______ ____
ROOT
ATOM      1  H   UNK    1        8.806  -3.031   0.000  0.00  0.00    +0.000 HD
ENDROOT
TORSDOF 0
REMARK  Name = molecules/WGWPRVFKDLAUQJ-MITYVQBRSA-N.pdb
REMARK                            x       y       z     vdW  Elec       q    Type
REMARK                         _______ _______ _______ _____ _____    ______ ____
ROOT
ATOM      1  H   UNK    1       12.642   2.103   0.000  0.00  0.00    +0.000 HD
ENDROOT
TORSDOF 0
REMARK  Name = molecules/WGWPRVFKDLAUQJ-MITYVQBRSA-N.pdb
REMARK                            x       y       z     vdW  Elec       q    Type
REMARK                         _______ _______ _______ _____ _____    ______ ____
ROOT
ATOM      1  H   UNK    1       10.441   1.051   0.000  0.00  0.00    +0.000 HD
ENDROOT
TORSDOF 0
REMARK  Name = molecules/WGWPRVFKDLAUQJ-MITYVQBRSA-N.pdb
REMARK                            x       y       z     vdW  Elec       q    Type
REMARK                         _______ _______ _______ _____ _____    ______ ____
ROOT
ATOM      1  H   UNK    1       -0.292  -0.220   0.000  0.00  0.00    +0.000 HD
ENDROOT
TORSDOF 0
REMARK  Name = molecules/WGWPRVFKDLAUQJ-MITYVQBRSA-N.pdb
REMARK                            x       y       z     vdW  Elec       q    Type
REMARK                         _______ _______ _______ _____ _____    ______ ____
ROOT
ATOM      1  H   UNK    1       -0.732  -1.534   0.000  0.00  0.00    +0.000 HD
ENDROOT
TORSDOF 0
REMARK  Name = molecules/WGWPRVFKDLAUQJ-MITYVQBRSA-N.pdb
REMARK                            x       y       z     vdW  Elec       q    Type
REMARK                         _______ _______ _______ _____ _____    ______ ____
ROOT
ATOM      1  H   UNK    1        0.951  -4.647   0.000  0.00  0.00    +0.000 HD
ENDROOT
TORSDOF 0
REMARK  Name = molecules/WGWPRVFKDLAUQJ-MITYVQBRSA-N.pdb
REMARK                            x       y       z     vdW  Elec       q    Type
REMARK                         _______ _______ _______ _____ _____    ______ ____
ROOT
ATOM      1  H   UNK    1        3.433  -0.488   0.000  0.00  0.00    +0.000 HD
ENDROOT
TORSDOF 0
REMARK  Name = molecules/WGWPRVFKDLAUQJ-MITYVQBRSA-N.pdb
REMARK                            x       y       z     vdW  Elec       q    Type
REMARK                         _______ _______ _______ _____ _____    ______ ____
ROOT
ATOM      1  H   UNK    1       -1.939  -8.965   0.000  0.00  0.00    +0.000 HD
ENDROOT
TORSDOF 0
REMARK  Name = molecules/WGWPRVFKDLAUQJ-MITYVQBRSA-N.pdb
REMARK                            x       y       z     vdW  Elec       q    Type
REMARK                         _______ _______ _______ _____ _____    ______ ____
ROOT
ATOM      1  H   UNK    1        0.659  -7.465   0.000  0.00  0.00    +0.000 HD
ENDROOT
TORSDOF 0
REMARK  Name = molecules/WGWPRVFKDLAUQJ-MITYVQBRSA-N.pdb
REMARK                            x       y       z     vdW  Elec       q    Type
REMARK                         _______ _______ _______ _____ _____    ______ ____
ROOT
ATOM      1  H   UNK    1        3.903  -8.992   0.000  0.00  0.00    +0.000 HD
ENDROOT
TORSDOF 0
REMARK  Name = molecules/WGWPRVFKDLAUQJ-MITYVQBRSA-N.pdb
REMARK                            x       y       z     vdW  Elec       q    Type
REMARK                         _______ _______ _______ _____ _____    ______ ____
ROOT
ATOM      1  H   UNK    1       -1.790  -8.409   0.000  0.00  0.00    +0.000 HD
ENDROOT
TORSDOF 0
REMARK  Name = molecules/WGWPRVFKDLAUQJ-MITYVQBRSA-N.pdb
REMARK                            x       y       z     vdW  Elec       q    Type
REMARK                         _______ _______ _______ _____ _____    ______ ____
ROOT
ATOM      1  H   UNK    1       15.586  -9.112   0.000  0.00  0.00    +0.000 HD
ENDROOT
TORSDOF 0
REMARK  Name = molecules/WGWPRVFKDLAUQJ-MITYVQBRSA-N.pdb
REMARK                            x       y       z     vdW  Elec       q    Type
REMARK                         _______ _______ _______ _____ _____    ______ ____
ROOT
ATOM      1  H   UNK    1       13.707   1.334   0.000  0.00  0.00    +0.000 HD
ENDROOT
TORSDOF 0
REMARK  Name = molecules/WGWPRVFKDLAUQJ-MITYVQBRSA-N.pdb
REMARK                            x       y       z     vdW  Elec       q    Type
REMARK                         _______ _______ _______ _____ _____    ______ ____
ROOT
ATOM      1  H   UNK    1       11.109  -0.166   0.000  0.00  0.00    +0.000 HD
ENDROOT
TORSDOF 0
REMARK  Name = molecules/WGWPRVFKDLAUQJ-MITYVQBRSA-N.pdb
REMARK                            x       y       z     vdW  Elec       q    Type
REMARK                         _______ _______ _______ _____ _____    ______ ____
ROOT
ATOM      1  H   UNK    1        6.998  -7.599   0.000  0.00  0.00    +0.000 HD
ENDROOT
TORSDOF 0
REMARK  Name = molecules/WGWPRVFKDLAUQJ-MITYVQBRSA-N.pdb
REMARK                            x       y       z     vdW  Elec       q    Type
REMARK                         _______ _______ _______ _____ _____    ______ ____
ROOT
ATOM      1  H   UNK    1        6.812  -6.757   0.000  0.00  0.00    +0.000 HD
ENDROOT
TORSDOF 0
REMARK  Name = molecules/WGWPRVFKDLAUQJ-MITYVQBRSA-N.pdb
REMARK                            x       y       z     vdW  Elec       q    Type
REMARK                         _______ _______ _______ _____ _____    ______ ____
ROOT
ATOM      1  H   UNK    1        6.953   0.329   0.000  0.00  0.00    +0.000 HD
ENDROOT
TORSDOF 0
REMARK  Name = molecules/WGWPRVFKDLAUQJ-MITYVQBRSA-N.pdb
REMARK                            x       y       z     vdW  Elec       q    Type
REMARK                         _______ _______ _______ _____ _____    ______ ____
ROOT
ATOM      1  H   UNK    1        5.946  -0.201   0.000  0.00  0.00    +0.000 HD
ENDROOT
TORSDOF 0
REMARK  Name = molecules/WGWPRVFKDLAUQJ-MITYVQBRSA-N.pdb
REMARK                            x       y       z     vdW  Elec       q    Type
REMARK                         _______ _______ _______ _____ _____    ______ ____
ROOT
ATOM      1  H   UNK    1        0.550  -1.003   0.000  0.00  0.00    +0.000 HD
ENDROOT
TORSDOF 0
REMARK  Name = molecules/WGWPRVFKDLAUQJ-MITYVQBRSA-N.pdb
REMARK                            x       y       z     vdW  Elec       q    Type
REMARK                         _______ _______ _______ _____ _____    ______ ____
ROOT
ATOM      1  H   UNK    1       -0.143  -0.065   0.000  0.00  0.00    +0.000 HD
ENDROOT
TORSDOF 0
REMARK  Name = molecules/WGWPRVFKDLAUQJ-MITYVQBRSA-N.pdb
REMARK                            x       y       z     vdW  Elec       q    Type
REMARK                         _______ _______ _______ _____ _____    ______ ____
ROOT
ATOM      1  H   UNK    1        2.799   5.544   0.000  0.00  0.00    +0.000 HD
ENDROOT
TORSDOF 0
REMARK  Name = molecules/WGWPRVFKDLAUQJ-MITYVQBRSA-N.pdb
REMARK                            x       y       z     vdW  Elec       q    Type
REMARK                         _______ _______ _______ _____ _____    ______ ____
ROOT
ATOM      1  H   UNK    1        2.952   3.047   0.000  0.00  0.00    +0.000 HD
ENDROOT
TORSDOF 0
REMARK  Name = molecules/WGWPRVFKDLAUQJ-MITYVQBRSA-N.pdb
REMARK                            x       y       z     vdW  Elec       q    Type
REMARK                         _______ _______ _______ _____ _____    ______ ____
ROOT
ATOM      1  H   UNK    1        0.549   6.843   0.000  0.00  0.00    +0.000 HD
ENDROOT
TORSDOF 0
REMARK  Name = molecules/WGWPRVFKDLAUQJ-MITYVQBRSA-N.pdb
REMARK                            x       y       z     vdW  Elec       q    Type
REMARK                         _______ _______ _______ _____ _____    ______ ____
ROOT
ATOM      1  H   UNK    1        9.384  -4.065   0.000  0.00  0.00    +0.000 HD
ENDROOT
TORSDOF 0
REMARK  Name = molecules/WGWPRVFKDLAUQJ-MITYVQBRSA-N.pdb
REMARK                            x       y       z     vdW  Elec       q    Type
REMARK                         _______ _______ _______ _____ _____    ______ ____
ROOT
ATOM      1  H   UNK    1        7.410  -2.631   0.000  0.00  0.00    +0.000 HD
ENDROOT
TORSDOF 0
REMARK  Name = molecules/WGWPRVFKDLAUQJ-MITYVQBRSA-N.pdb
REMARK                            x       y       z     vdW  Elec       q    Type
REMARK                         _______ _______ _______ _____ _____    ______ ____
ROOT
ATOM      1  H   UNK    1       12.477   0.391   0.000  0.00  0.00    +0.000 HD
ENDROOT
TORSDOF 0
REMARK  Name = molecules/WGWPRVFKDLAUQJ-MITYVQBRSA-N.pdb
REMARK                            x       y       z     vdW  Elec       q    Type
REMARK                         _______ _______ _______ _____ _____    ______ ____
ROOT
ATOM      1  H   UNK    1       10.245  -0.549   0.000  0.00  0.00    +0.000 HD
ENDROOT
TORSDOF 0
REMARK  Name = molecules/WGWPRVFKDLAUQJ-MITYVQBRSA-N.pdb
REMARK                            x       y       z     vdW  Elec       q    Type
REMARK                         _______ _______ _______ _____ _____    ______ ____
ROOT
ATOM      1  H   UNK    1       -1.098  -0.402   0.000  0.00  0.00    +0.000 HD
ENDROOT
TORSDOF 0
REMARK  Name = molecules/WGWPRVFKDLAUQJ-MITYVQBRSA-N.pdb
REMARK                            x       y       z     vdW  Elec       q    Type
REMARK                         _______ _______ _______ _____ _____    ______ ____
ROOT
ATOM      1  H   UNK    1       -1.729  -2.287   0.000  0.00  0.00    +0.000 HD
ENDROOT
TORSDOF 0
REMARK  Name = molecules/WGWPRVFKDLAUQJ-MITYVQBRSA-N.pdb
REMARK                            x       y       z     vdW  Elec       q    Type
REMARK                         _______ _______ _______ _____ _____    ______ ____
ROOT
ATOM      1  H   UNK    1        0.603  -6.348   0.000  0.00  0.00    +0.000 HD
ENDROOT
TORSDOF 0
REMARK  Name = molecules/WGWPRVFKDLAUQJ-MITYVQBRSA-N.pdb
REMARK                            x       y       z     vdW  Elec       q    Type
REMARK                         _______ _______ _______ _____ _____    ______ ____
ROOT
ATOM      1  H   UNK    1       -0.495 -13.044   0.000  0.00  0.00    +0.000 HD
ENDROOT
TORSDOF 0
REMARK  Name = molecules/WGWPRVFKDLAUQJ-MITYVQBRSA-N.pdb
REMARK                            x       y       z     vdW  Elec       q    Type
REMARK                         _______ _______ _______ _____ _____    ______ ____
ROOT
ATOM      1  H   UNK    1       -2.287 -10.666   0.000  0.00  0.00    +0.000 HD
ENDROOT
TORSDOF 0
REMARK  Name = molecules/WGWPRVFKDLAUQJ-MITYVQBRSA-N.pdb
REMARK                            x       y       z     vdW  Elec       q    Type
REMARK                         _______ _______ _______ _____ _____    ______ ____
ROOT
ATOM      1  H   UNK    1        2.103 -11.544   0.000  0.00  0.00    +0.000 HD
ENDROOT
TORSDOF 0
REMARK  Name = molecules/WGWPRVFKDLAUQJ-MITYVQBRSA-N.pdb
REMARK                            x       y       z     vdW  Elec       q    Type
REMARK                         _______ _______ _______ _____ _____    ______ ____
ROOT
ATOM      1  H   UNK    1       -1.446  -8.397   0.000  0.00  0.00    +0.000 HD
ENDROOT
TORSDOF 0
REMARK  Name = molecules/WGWPRVFKDLAUQJ-MITYVQBRSA-N.pdb
REMARK                            x       y       z     vdW  Elec       q    Type
REMARK                         _______ _______ _______ _____ _____    ______ ____
ROOT
ATOM      1  H   UNK    1        9.430 -10.757   0.000  0.00  0.00    +0.000 HD
ENDROOT
TORSDOF 0
REMARK  Name = molecules/WGWPRVFKDLAUQJ-MITYVQBRSA-N.pdb
REMARK                            x       y       z     vdW  Elec       q    Type
REMARK                         _______ _______ _______ _____ _____    ______ ____
ROOT
ATOM      1  H   UNK    1        6.851 -12.246   0.000  0.00  0.00    +0.000 HD
ENDROOT
TORSDOF 0
REMARK  Name = molecules/WGWPRVFKDLAUQJ-MITYVQBRSA-N.pdb
REMARK                            x       y       z     vdW  Elec       q    Type
REMARK                         _______ _______ _______ _____ _____    ______ ____
ROOT
ATOM      1  H   UNK    1        8.799 -15.240   0.000  0.00  0.00    +0.000 HD
ENDROOT
TORSDOF 0
REMARK  Name = molecules/WGWPRVFKDLAUQJ-MITYVQBRSA-N.pdb
REMARK                            x       y       z     vdW  Elec       q    Type
REMARK                         _______ _______ _______ _____ _____    ______ ____
ROOT
ATOM      1  H   UNK    1        6.549 -13.941   0.000  0.00  0.00    +0.000 HD
ENDROOT
TORSDOF 0
REMARK  Name = molecules/WGWPRVFKDLAUQJ-MITYVQBRSA-N.pdb
REMARK                            x       y       z     vdW  Elec       q    Type
REMARK                         _______ _______ _______ _____ _____    ______ ____
ROOT
ATOM      1  H   UNK    1        5.712  -1.317   0.000  0.00  0.00    +0.000 HD
ENDROOT
TORSDOF 0
REMARK  Name = molecules/WGWPRVFKDLAUQJ-MITYVQBRSA-N.pdb
REMARK                            x       y       z     vdW  Elec       q    Type
REMARK                         _______ _______ _______ _____ _____    ______ ____
ROOT
ATOM      1  H   UNK    1        8.864  -5.886   0.000  0.00  0.00    +0.000 HD
ENDROOT
TORSDOF 0
REMARK  Name = molecules/WGWPRVFKDLAUQJ-MITYVQBRSA-N.pdb
REMARK                            x       y       z     vdW  Elec       q    Type
REMARK                         _______ _______ _______ _____ _____    ______ ____
ROOT
ATOM      1  H   UNK    1        4.410  -4.131   0.000  0.00  0.00    +0.000 HD
ENDROOT
TORSDOF 0
REMARK  Name = molecules/WGWPRVFKDLAUQJ-MITYVQBRSA-N.pdb
REMARK                            x       y       z     vdW  Elec       q    Type
REMARK                         _______ _______ _______ _____ _____    ______ ____
ROOT
ATOM      1  H   UNK    1        4.647  -3.549   0.000  0.00  0.00    +0.000 HD
ENDROOT
TORSDOF 0
REMARK  Name = molecules/WGWPRVFKDLAUQJ-MITYVQBRSA-N.pdb
REMARK                            x       y       z     vdW  Elec       q    Type
REMARK                         _______ _______ _______ _____ _____    ______ ____
ROOT
ATOM      1  H   UNK    1        5.632  -6.330   0.000  0.00  0.00    +0.000 HD
ENDROOT
TORSDOF 0
REMARK  Name = molecules/WGWPRVFKDLAUQJ-MITYVQBRSA-N.pdb
REMARK                            x       y       z     vdW  Elec       q    Type
REMARK                         _______ _______ _______ _____ _____    ______ ____
ROOT
ATOM      1  H   UNK    1        6.184 -12.175   0.000  0.00  0.00    +0.000 HD
ENDROOT
TORSDOF 0
REMARK  Name = molecules/WGWPRVFKDLAUQJ-MITYVQBRSA-N.pdb
REMARK                            x       y       z     vdW  Elec       q    Type
REMARK                         _______ _______ _______ _____ _____    ______ ____
ROOT
ATOM      1  H   UNK    1        4.171 -10.331   0.000  0.00  0.00    +0.000 HD
ENDROOT
TORSDOF 0
REMARK  Name = molecules/WGWPRVFKDLAUQJ-MITYVQBRSA-N.pdb
REMARK                            x       y       z     vdW  Elec       q    Type
REMARK                         _______ _______ _______ _____ _____    ______ ____
ROOT
ATOM      1  H   UNK    1        9.269  -6.651   0.000  0.00  0.00    +0.000 HD
ENDROOT
TORSDOF 0
REMARK  Name = molecules/WGWPRVFKDLAUQJ-MITYVQBRSA-N.pdb
REMARK                            x       y       z     vdW  Elec       q    Type
REMARK                         _______ _______ _______ _____ _____    ______ ____
ROOT
ATOM      1  H   UNK    1       17.142 -11.691   0.000  0.00  0.00    +0.000 HD
ENDROOT
TORSDOF 0
REMARK  Name = molecules/WGWPRVFKDLAUQJ-MITYVQBRSA-N.pdb
REMARK                            x       y       z     vdW  Elec       q    Type
REMARK                         _______ _______ _______ _____ _____    ______ ____
ROOT
ATOM      1  H   UNK    1       20.289  -6.642   0.000  0.00  0.00    +0.000 HD
ENDROOT
TORSDOF 0
REMARK  Name = molecules/WGWPRVFKDLAUQJ-MITYVQBRSA-N.pdb
REMARK                            x       y       z     vdW  Elec       q    Type
REMARK                         _______ _______ _______ _____ _____    ______ ____
ROOT
ATOM      1  H   UNK    1       22.887 -11.142   0.000  0.00  0.00    +0.000 HD
ENDROOT
TORSDOF 0
REMARK  Name = molecules/WGWPRVFKDLAUQJ-MITYVQBRSA-N.pdb
REMARK                            x       y       z     vdW  Elec       q    Type
REMARK                         _______ _______ _______ _____ _____    ______ ____
ROOT
ATOM      1  H   UNK    1       20.289 -11.142   0.000  0.00  0.00    +0.000 HD
ENDROOT
TORSDOF 0
REMARK  Name = molecules/WGWPRVFKDLAUQJ-MITYVQBRSA-N.pdb
REMARK                            x       y       z     vdW  Elec       q    Type
REMARK                         _______ _______ _______ _____ _____    ______ ____
ROOT
ATOM      1  H   UNK    1       24.186  -8.892   0.000  0.00  0.00    +0.000 HD
ENDROOT
TORSDOF 0
REMARK  Name = molecules/WGWPRVFKDLAUQJ-MITYVQBRSA-N.pdb
REMARK                            x       y       z     vdW  Elec       q    Type
REMARK                         _______ _______ _______ _____ _____    ______ ____
ROOT
ATOM      1  H   UNK    1       15.843 -12.441   0.000  0.00  0.00    +0.000 HD
ENDROOT
TORSDOF 0
