REMARK  Name = molecules/WHLUQAYNVOGZST-UHFFFAOYSA-N.pdb
REMARK                            x       y       z     vdW  Elec       q    Type
REMARK                         _______ _______ _______ _____ _____    ______ ____
ROOT
ATOM      1  C   LIG    1       -2.153  -0.335  -0.996  0.00  0.00    +0.126 C 
ENDROOT
BRANCH   1   2
ATOM      2  C   LIG    1       -2.940  -1.414  -0.332  0.00  0.00    -0.032 A 
ATOM      3  C   LIG    1       -2.819  -1.696   1.006  0.00  0.00    +0.005 A 
ATOM      4  C   LIG    1       -3.578  -2.715   1.542  0.00  0.00    +0.000 A 
ATOM      5  C   LIG    1       -4.458  -3.471   0.795  0.00  0.00    +0.000 A 
ATOM      6  C   LIG    1       -4.547  -3.153  -0.537  0.00  0.00    +0.000 A 
ATOM      7  C   LIG    1       -3.812  -2.149  -1.110  0.00  0.00    +0.005 A 
ENDBRANCH   1   2
BRANCH   1   8
ATOM      8  C   LIG    1       -2.662   0.954  -0.504  0.00  0.00    -0.032 A 
ATOM      9  C   LIG    1       -2.053   1.772   0.389  0.00  0.00    +0.005 A 
ATOM     10  C   LIG    1       -2.558   2.987   0.823  0.00  0.00    +0.000 A 
ATOM     11  C   LIG    1       -3.767   3.392   0.307  0.00  0.00    +0.000 A 
ATOM     12  C   LIG    1       -4.420   2.578  -0.613  0.00  0.00    +0.000 A 
ATOM     13  C   LIG    1       -3.891   1.396  -1.011  0.00  0.00    +0.005 A 
ENDBRANCH   1   8
BRANCH   1  14
ATOM     14  C   LIG    1       -0.725  -0.587  -0.806  0.00  0.00    +0.201 C 
ATOM     15  O   LIG    1       -0.036  -0.746  -1.828  0.00  0.00    -0.284 OA
BRANCH  14  16
ATOM     16  S   LIG    1        0.115  -0.686   0.733  0.00  0.00    -0.086 S 
BRANCH  16  17
ATOM     17  C   LIG    1        1.907  -0.998   0.518  0.00  0.00    +0.092 C 
BRANCH  17  18
ATOM     18  C   LIG    1        2.576   0.182  -0.145  0.00  0.00    +0.095 C 
BRANCH  18  19
ATOM     19  N   LIG    1        3.957   0.049  -0.361  0.00  0.00    -0.302 NA
BRANCH  19  20
ATOM     20  C   LIG    1        4.856   0.025   0.711  0.00  0.00    +0.081 C 
ATOM     21  C   LIG    1        4.868  -1.116   1.634  0.00  0.00    +0.020 C 
ENDBRANCH  19  20
BRANCH  19  22
ATOM     22  C   LIG    1        4.459   0.753  -1.522  0.00  0.00    +0.081 C 
ATOM     23  C   LIG    1        4.388   2.249  -1.361  0.00  0.00    +0.020 C 
ENDBRANCH  19  22
ENDBRANCH  18  19
ENDBRANCH  17  18
ENDBRANCH  16  17
ENDBRANCH  14  16
ENDBRANCH   1  14
TORSDOF 9
