REMARK  Name = molecules/WHPAGCJNPTUGGD-UHFFFAOYSA-N.pdb
REMARK                            x       y       z     vdW  Elec       q    Type
REMARK                         _______ _______ _______ _____ _____    ______ ____
ROOT
ATOM      1  C   LIG    1       -1.564  -0.071  -1.075  0.00  0.00    +0.040 A 
ATOM      2  C   LIG    1       -0.550   0.595  -0.426  0.00  0.00    +0.130 A 
ATOM      3  C   LIG    1        0.107   1.677  -0.997  0.00  0.00    +0.046 A 
ATOM      4  C   LIG    1       -0.251   2.113  -2.248  0.00  0.00    +0.004 A 
ATOM      5  C   LIG    1       -1.263   1.468  -2.928  0.00  0.00    +0.001 A 
ATOM      6  C   LIG    1       -1.905   0.388  -2.336  0.00  0.00    +0.013 A 
ENDROOT
BRANCH   1   7
ATOM      7  C   LIG    1       -2.299  -1.190  -0.492  0.00  0.00    +0.051 C 
ATOM      8  C   LIG    1       -2.735  -2.124  -1.318  0.00  0.00    +0.037 C 
BRANCH   7   9
ATOM      9  N   LIG    1       -2.575  -1.329   0.899  0.00  0.00    -0.306 N 
ATOM     10  C   LIG    1       -2.685  -0.344   1.802  0.00  0.00    +0.204 A 
ATOM     11  N   LIG    1       -2.990  -0.967   2.975  0.00  0.00    -0.244 NA
ATOM     12  C   LIG    1       -3.066  -2.295   2.794  0.00  0.00    +0.130 A 
ATOM     13  C   LIG    1       -2.804  -2.519   1.482  0.00  0.00    +0.112 A 
ENDBRANCH   7   9
ENDBRANCH   1   7
BRANCH   2  14
ATOM     14  O   LIG    1       -0.156   0.198   0.816  0.00  0.00    -0.487 OA
BRANCH  14  15
ATOM     15  C   LIG    1        0.856   0.754   1.611  0.00  0.00    +0.264 C 
BRANCH  15  16
ATOM     16  C   LIG    1        2.194   0.679   0.971  0.00  0.00    -0.009 A 
ATOM     17  C   LIG    1        3.258   1.451   1.384  0.00  0.00    +0.007 A 
ATOM     18  C   LIG    1        4.469   1.331   0.747  0.00  0.00    +0.002 A 
ATOM     19  C   LIG    1        4.633   0.450  -0.300  0.00  0.00    +0.020 A 
ATOM     20  C   LIG    1        3.569  -0.330  -0.723  0.00  0.00    +0.041 A 
ATOM     21 CL   LIG    1        3.814  -1.438  -2.056  0.00  0.00    -0.084 Cl
ATOM     22  C   LIG    1        2.354  -0.212  -0.086  0.00  0.00    +0.027 A 
ENDBRANCH  15  16
ENDBRANCH  14  15
ENDBRANCH   2  14
TORSDOF 5
