REMARK  Name = molecules/WHRODDIHRRDWEW-VTHZAVIASA-N.pdb
REMARK                            x       y       z     vdW  Elec       q    Type
REMARK                         _______ _______ _______ _____ _____    ______ ____
ROOT
ATOM      1  C   LIG    1        5.732  -0.839  -1.549  0.00  0.00    +0.179 C 
ATOM      2  C   LIG    1        5.977  -0.404  -0.137  0.00  0.00    +0.182 C 
ATOM      3  C   LIG    1        6.275  -1.683   0.653  0.00  0.00    +0.163 C 
ATOM      4  O   LIG    1        5.189  -2.571   0.559  0.00  0.00    -0.342 OA
ATOM      5  C   LIG    1        5.030  -3.116  -0.709  0.00  0.00    +0.282 C 
ATOM      6  O   LIG    1        5.448  -4.418  -0.726  0.00  0.00    -0.340 OA
ATOM      7  C   LIG    1        4.479  -5.375  -0.500  0.00  0.00    +0.182 C 
ATOM      8  C   LIG    1        3.886  -5.311   0.905  0.00  0.00    +0.179 C 
ATOM      9  C   LIG    1        2.380  -5.300   0.918  0.00  0.00    +0.201 C 
ATOM     10  C   LIG    1        1.750  -6.207  -0.061  0.00  0.00    +0.282 C 
ATOM     11  O   LIG    1        0.626  -5.598  -0.615  0.00  0.00    -0.340 OA
ATOM     12  C   LIG    1       -0.459  -6.478  -0.702  0.00  0.00    +0.182 C 
ATOM     13  C   LIG    1       -1.159  -6.586   0.633  0.00  0.00    +0.179 C 
ATOM     14  C   LIG    1       -1.926  -5.259   0.829  0.00  0.00    +0.201 C 
ATOM     15  C   LIG    1       -3.077  -5.216  -0.158  0.00  0.00    +0.282 C 
ATOM     16  O   LIG    1       -3.517  -3.905  -0.361  0.00  0.00    -0.340 OA
ATOM     17  C   LIG    1       -4.430  -3.470   0.583  0.00  0.00    +0.182 C 
ATOM     18  C   LIG    1       -3.847  -2.341   1.404  0.00  0.00    +0.179 C 
ATOM     19  C   LIG    1       -5.004  -1.892   2.302  0.00  0.00    +0.201 C 
ATOM     20  C   LIG    1       -6.050  -1.306   1.435  0.00  0.00    +0.282 C 
ATOM     21  O   LIG    1       -6.585  -2.379   0.674  0.00  0.00    -0.342 OA
ATOM     22  O   LIG    1       -5.687  -0.341   0.570  0.00  0.00    -0.340 OA
ATOM     23  C   LIG    1       -5.416   0.931   1.065  0.00  0.00    +0.182 C 
ATOM     24  C   LIG    1       -6.613   1.649   1.567  0.00  0.00    +0.163 C 
ATOM     25  O   LIG    1       -6.758   2.964   1.116  0.00  0.00    -0.342 OA
ATOM     26  C   LIG    1       -5.463   3.579   1.262  0.00  0.00    +0.282 C 
ATOM     27  O   LIG    1       -5.487   4.920   1.247  0.00  0.00    -0.340 OA
ATOM     28  C   LIG    1       -4.813   5.666   2.152  0.00  0.00    +0.182 C 
ATOM     29  C   LIG    1       -3.907   5.027   3.116  0.00  0.00    +0.179 C 
ATOM     30  C   LIG    1       -2.522   4.706   2.654  0.00  0.00    +0.201 C 
ATOM     31  C   LIG    1       -1.989   5.689   1.641  0.00  0.00    +0.282 C 
ATOM     32  O   LIG    1       -1.067   5.019   0.849  0.00  0.00    -0.340 OA
ATOM     33  C   LIG    1        0.260   5.430   1.039  0.00  0.00    +0.182 C 
ATOM     34  C   LIG    1        0.836   4.802   2.265  0.00  0.00    +0.179 C 
ATOM     35  C   LIG    1        2.266   4.404   2.222  0.00  0.00    +0.201 C 
ATOM     36  C   LIG    1        2.779   4.088   0.842  0.00  0.00    +0.282 C 
ATOM     37  O   LIG    1        3.555   2.926   0.813  0.00  0.00    -0.340 OA
ATOM     38  C   LIG    1        4.821   3.199   0.276  0.00  0.00    +0.182 C 
ATOM     39  C   LIG    1        5.921   2.747   1.191  0.00  0.00    +0.179 C 
ATOM     40  C   LIG    1        7.194   2.669   0.408  0.00  0.00    +0.201 C 
ATOM     41  C   LIG    1        7.011   1.620  -0.653  0.00  0.00    +0.282 C 
ATOM     42  O   LIG    1        5.840   1.675  -1.323  0.00  0.00    -0.342 OA
ATOM     43  C   LIG    1        4.983   2.687  -1.145  0.00  0.00    +0.163 C 
ATOM     44  O   LIG    1        1.765   3.937  -0.080  0.00  0.00    -0.342 OA
ATOM     45  C   LIG    1        1.000   5.105  -0.217  0.00  0.00    +0.163 C 
ATOM     46  O   LIG    1       -2.968   6.167   0.799  0.00  0.00    -0.342 OA
ATOM     47  C   LIG    1       -4.053   6.752   1.379  0.00  0.00    +0.163 C 
ATOM     48  C   LIG    1       -4.761   3.124  -0.032  0.00  0.00    +0.201 C 
ATOM     49  C   LIG    1       -4.845   1.654  -0.167  0.00  0.00    +0.179 C 
ATOM     50  C   LIG    1       -5.606  -2.846  -0.165  0.00  0.00    +0.163 C 
ATOM     51  O   LIG    1       -2.755  -5.907  -1.287  0.00  0.00    -0.342 OA
ATOM     52  C   LIG    1       -1.457  -5.895  -1.700  0.00  0.00    +0.163 C 
ATOM     53  O   LIG    1        2.585  -6.568  -1.114  0.00  0.00    -0.342 OA
ATOM     54  C   LIG    1        3.355  -5.418  -1.456  0.00  0.00    +0.163 C 
ATOM     55  O   LIG    1        7.127   0.369  -0.020  0.00  0.00    -0.340 OA
ATOM     56  C   LIG    1        5.783  -2.337  -1.761  0.00  0.00    +0.201 C 
ENDROOT
BRANCH  35  57
ATOM     57  O   LIG    1        2.439   3.236   2.973  0.00  0.00    -0.384 OA
ATOM     58  H   LIG    1        3.138   3.339   3.664  0.00  0.00    +0.210 HD
ENDBRANCH  35  57
BRANCH  39  59
ATOM     59  O   LIG    1        6.128   3.768   2.154  0.00  0.00    -0.386 OA
ATOM     60  H   LIG    1        6.797   4.426   1.798  0.00  0.00    +0.210 HD
ENDBRANCH  39  59
BRANCH  40  61
ATOM     61  O   LIG    1        8.299   2.407   1.224  0.00  0.00    -0.384 OA
ATOM     62  H   LIG    1        8.595   1.495   0.987  0.00  0.00    +0.210 HD
ENDBRANCH  40  61
BRANCH  13  63
ATOM     63  O   LIG    1       -2.068  -7.607   0.606  0.00  0.00    -0.386 OA
ATOM     64  H   LIG    1       -1.866  -8.308   1.265  0.00  0.00    +0.210 HD
ENDBRANCH  13  63
BRANCH   1  65
ATOM     65  O   LIG    1        4.481  -0.401  -2.041  0.00  0.00    -0.386 OA
ATOM     66  H   LIG    1        3.768  -0.446  -1.351  0.00  0.00    +0.210 HD
ENDBRANCH   1  65
BRANCH  48  67
ATOM     67  O   LIG    1       -5.552   3.682  -1.057  0.00  0.00    -0.384 OA
ATOM     68  H   LIG    1       -4.935   3.900  -1.804  0.00  0.00    +0.210 HD
ENDBRANCH  48  67
BRANCH  49  69
ATOM     69  O   LIG    1       -3.576   1.155  -0.478  0.00  0.00    -0.386 OA
ATOM     70  H   LIG    1       -2.931   1.733   0.006  0.00  0.00    +0.210 HD
ENDBRANCH  49  69
BRANCH  18  71
ATOM     71  O   LIG    1       -2.831  -2.679   2.251  0.00  0.00    -0.386 OA
ATOM     72  H   LIG    1       -2.013  -2.173   1.980  0.00  0.00    +0.210 HD
ENDBRANCH  18  71
BRANCH  30  73
ATOM     73  O   LIG    1       -2.359   3.392   2.228  0.00  0.00    -0.384 OA
ATOM     74  H   LIG    1       -1.852   3.372   1.392  0.00  0.00    +0.210 HD
ENDBRANCH  30  73
BRANCH  56  75
ATOM     75  O   LIG    1        7.072  -2.819  -1.983  0.00  0.00    -0.384 OA
ATOM     76  H   LIG    1        7.204  -3.723  -1.629  0.00  0.00    +0.210 HD
ENDBRANCH  56  75
BRANCH   8  77
ATOM     77  O   LIG    1        4.328  -6.386   1.681  0.00  0.00    -0.386 OA
ATOM     78  H   LIG    1        4.740  -6.023   2.503  0.00  0.00    +0.210 HD
ENDBRANCH   8  77
BRANCH   9  79
ATOM     79  O   LIG    1        1.943  -3.989   0.888  0.00  0.00    -0.384 OA
ATOM     80  H   LIG    1        1.463  -3.698   1.678  0.00  0.00    +0.210 HD
ENDBRANCH   9  79
BRANCH  14  81
ATOM     81  O   LIG    1       -1.017  -4.270   0.497  0.00  0.00    -0.384 OA
ATOM     82  H   LIG    1       -1.428  -3.512  -0.007  0.00  0.00    +0.210 HD
ENDBRANCH  14  81
BRANCH  19  83
ATOM     83  O   LIG    1       -4.573  -1.185   3.381  0.00  0.00    -0.384 OA
ATOM     84  H   LIG    1       -5.056  -1.369   4.232  0.00  0.00    +0.210 HD
ENDBRANCH  19  83
BRANCH  29  85
ATOM     85  O   LIG    1       -3.790   5.911   4.233  0.00  0.00    -0.386 OA
ATOM     86  H   LIG    1       -2.862   5.885   4.585  0.00  0.00    +0.210 HD
ENDBRANCH  29  85
BRANCH  34  87
ATOM     87  O   LIG    1        0.718   5.747   3.317  0.00  0.00    -0.386 OA
ATOM     88  H   LIG    1        1.220   6.584   3.108  0.00  0.00    +0.210 HD
ENDBRANCH  34  87
BRANCH  52  89
ATOM     89  C   LIG    1       -1.346  -6.820  -2.926  0.00  0.00    +0.103 C 
BRANCH  89  90
ATOM     90  S   LIG    1       -1.848  -8.472  -2.422  0.00  0.00    -0.158 S 
BRANCH  90  91
ATOM     91  C   LIG    1       -3.591  -8.622  -2.037  0.00  0.00    +0.080 C 
BRANCH  91  92
ATOM     92  C   LIG    1       -3.881 -10.020  -1.536  0.00  0.00    +0.131 C 
BRANCH  92  93
ATOM     93  C   LIG    1       -3.545 -11.068  -2.507  0.00  0.00    +0.305 C 
ATOM     94  O   LIG    1       -3.068 -10.796  -3.664  0.00  0.00    -0.251 OA
BRANCH  93  95
ATOM     95  O   LIG    1       -3.737 -12.389  -2.198  0.00  0.00    -0.481 OA
ATOM     96  H   LIG    1       -3.828 -12.746  -1.264  0.00  0.00    +0.295 HD
ENDBRANCH  93  95
ENDBRANCH  92  93
ENDBRANCH  91  92
ENDBRANCH  90  91
ENDBRANCH  89  90
ENDBRANCH  52  89
BRANCH  54  97
ATOM     97  C   LIG    1        3.616  -5.432  -2.904  0.00  0.00    +0.103 C 
BRANCH  97  98
ATOM     98  S   LIG    1        4.473  -6.750  -3.623  0.00  0.00    -0.158 S 
BRANCH  98  99
ATOM     99  C   LIG    1        6.192  -6.980  -3.548  0.00  0.00    +0.080 C 
BRANCH  99 100
ATOM    100  C   LIG    1        6.882  -7.297  -2.275  0.00  0.00    +0.131 C 
BRANCH 100 101
ATOM    101  C   LIG    1        6.393  -8.552  -1.641  0.00  0.00    +0.305 C 
ATOM    102  O   LIG    1        5.471  -9.248  -2.134  0.00  0.00    -0.251 OA
BRANCH 101 103
ATOM    103  O   LIG    1        6.957  -9.014  -0.444  0.00  0.00    -0.481 OA
ATOM    104  H   LIG    1        6.781  -9.922  -0.078  0.00  0.00    +0.295 HD
ENDBRANCH 101 103
ENDBRANCH 100 101
ENDBRANCH  99 100
ENDBRANCH  98  99
ENDBRANCH  97  98
ENDBRANCH  54  97
BRANCH   3 105
ATOM    105  C   LIG    1        6.500  -1.411   2.115  0.00  0.00    +0.103 C 
BRANCH 105 106
ATOM    106  S   LIG    1        6.898  -2.798   3.122  0.00  0.00    -0.158 S 
BRANCH 106 107
ATOM    107  C   LIG    1        8.497  -3.474   3.195  0.00  0.00    +0.080 C 
BRANCH 107 108
ATOM    108  C   LIG    1        9.182  -4.011   1.995  0.00  0.00    +0.131 C 
BRANCH 108 109
ATOM    109  C   LIG    1        9.585  -3.015   0.985  0.00  0.00    +0.305 C 
ATOM    110  O   LIG    1        9.498  -1.767   1.241  0.00  0.00    -0.251 OA
BRANCH 109 111
ATOM    111  O   LIG    1       10.070  -3.335  -0.266  0.00  0.00    -0.481 OA
ATOM    112  H   LIG    1       10.052  -2.688  -1.052  0.00  0.00    +0.295 HD
ENDBRANCH 109 111
ENDBRANCH 108 109
ENDBRANCH 107 108
ENDBRANCH 106 107
ENDBRANCH 105 106
ENDBRANCH   3 105
BRANCH  24 113
ATOM    113  C   LIG    1       -6.875   1.613   3.033  0.00  0.00    +0.103 C 
BRANCH 113 114
ATOM    114  S   LIG    1       -8.510   1.940   3.616  0.00  0.00    -0.158 S 
BRANCH 114 115
ATOM    115  C   LIG    1       -9.338   3.430   3.229  0.00  0.00    +0.080 C 
BRANCH 115 116
ATOM    116  C   LIG    1       -9.954   3.354   1.839  0.00  0.00    +0.131 C 
BRANCH 116 117
ATOM    117  C   LIG    1      -10.646   4.604   1.442  0.00  0.00    +0.305 C 
ATOM    118  O   LIG    1      -10.571   5.599   2.187  0.00  0.00    -0.251 OA
BRANCH 117 119
ATOM    119  O   LIG    1      -11.347   4.575   0.237  0.00  0.00    -0.481 OA
ATOM    120  H   LIG    1      -12.114   3.888   0.168  0.00  0.00    +0.295 HD
ENDBRANCH 117 119
ENDBRANCH 116 117
ENDBRANCH 115 116
ENDBRANCH 114 115
ENDBRANCH 113 114
ENDBRANCH  24 113
BRANCH  43 121
ATOM    121  C   LIG    1        5.028   3.856  -2.067  0.00  0.00    +0.103 C 
BRANCH 121 122
ATOM    122  S   LIG    1        4.732   3.704  -3.765  0.00  0.00    -0.158 S 
BRANCH 122 123
ATOM    123  C   LIG    1        5.926   2.969  -4.823  0.00  0.00    +0.080 C 
BRANCH 123 124
ATOM    124  C   LIG    1        6.218   1.513  -4.695  0.00  0.00    +0.131 C 
BRANCH 124 125
ATOM    125  C   LIG    1        7.228   1.082  -5.739  0.00  0.00    +0.305 C 
ATOM    126  O   LIG    1        7.637   1.934  -6.547  0.00  0.00    -0.251 OA
BRANCH 125 127
ATOM    127  O   LIG    1        7.667  -0.209  -5.777  0.00  0.00    -0.481 OA
ATOM    128  H   LIG    1        7.449  -0.843  -4.996  0.00  0.00    +0.295 HD
ENDBRANCH 125 127
ENDBRANCH 124 125
ENDBRANCH 123 124
ENDBRANCH 122 123
ENDBRANCH 121 122
ENDBRANCH  43 121
BRANCH  50 129
ATOM    129  C   LIG    1       -6.242  -3.870  -1.084  0.00  0.00    +0.103 C 
BRANCH 129 130
ATOM    130  S   LIG    1       -6.934  -5.251  -0.206  0.00  0.00    -0.158 S 
BRANCH 130 131
ATOM    131  C   LIG    1       -8.328  -4.928   0.837  0.00  0.00    +0.080 C 
BRANCH 131 132
ATOM    132  C   LIG    1       -9.623  -4.612   0.171  0.00  0.00    +0.131 C 
BRANCH 132 133
ATOM    133  C   LIG    1       -9.622  -3.429  -0.702  0.00  0.00    +0.305 C 
ATOM    134  O   LIG    1       -9.573  -3.538  -1.966  0.00  0.00    -0.251 OA
BRANCH 133 135
ATOM    135  O   LIG    1       -9.675  -2.169  -0.152  0.00  0.00    -0.481 OA
ATOM    136  H   LIG    1       -9.299  -1.936   0.760  0.00  0.00    +0.295 HD
ENDBRANCH 133 135
ENDBRANCH 132 133
ENDBRANCH 131 132
ENDBRANCH 130 131
ENDBRANCH 129 130
ENDBRANCH  50 129
BRANCH  45 137
ATOM    137  C   LIG    1        1.768   6.206  -0.848  0.00  0.00    +0.103 C 
BRANCH 137 138
ATOM    138  S   LIG    1        0.762   7.728  -1.015  0.00  0.00    -0.158 S 
BRANCH 138 139
ATOM    139  C   LIG    1        1.773   8.956  -1.920  0.00  0.00    +0.080 C 
BRANCH 139 140
ATOM    140  C   LIG    1        2.976   9.278  -1.070  0.00  0.00    +0.131 C 
BRANCH 140 141
ATOM    141  C   LIG    1        3.881  10.242  -1.725  0.00  0.00    +0.305 C 
ATOM    142  O   LIG    1        3.742  10.748  -2.841  0.00  0.00    -0.251 OA
BRANCH 141 143
ATOM    143  O   LIG    1        5.023  10.616  -0.984  0.00  0.00    -0.481 OA
ATOM    144  H   LIG    1        5.782   9.953  -0.797  0.00  0.00    +0.295 HD
ENDBRANCH 141 143
ENDBRANCH 140 141
ENDBRANCH 139 140
ENDBRANCH 138 139
ENDBRANCH 137 138
ENDBRANCH  45 137
BRANCH  47 145
ATOM    145  C   LIG    1       -3.821   7.966   2.191  0.00  0.00    +0.103 C 
BRANCH 145 146
ATOM    146  S   LIG    1       -3.101   9.336   1.352  0.00  0.00    -0.158 S 
BRANCH 146 147
ATOM    147  C   LIG    1       -4.019  10.173   0.100  0.00  0.00    +0.080 C 
BRANCH 147 148
ATOM    148  C   LIG    1       -4.123   9.408  -1.173  0.00  0.00    +0.131 C 
BRANCH 148 149
ATOM    149  C   LIG    1       -4.947  10.166  -2.184  0.00  0.00    +0.305 C 
ATOM    150  O   LIG    1       -4.404  11.051  -2.866  0.00  0.00    -0.251 OA
BRANCH 149 151
ATOM    151  O   LIG    1       -6.280   9.853  -2.325  0.00  0.00    -0.481 OA
ATOM    152  H   LIG    1       -6.963  10.506  -2.710  0.00  0.00    +0.295 HD
ENDBRANCH 149 151
ENDBRANCH 148 149
ENDBRANCH 147 148
ENDBRANCH 146 147
ENDBRANCH 145 146
ENDBRANCH  47 145
TORSDOF 64
