REMARK  Name = molecules/WHTVZRBIWZFKQO-CQSZACIVSA-N.pdb
REMARK                            x       y       z     vdW  Elec       q    Type
REMARK                         _______ _______ _______ _____ _____    ______ ____
ROOT
ATOM      1  N   LIG    1        1.220   1.133  -0.210  0.00  0.00    -0.341 N 
ATOM      2  H   LIG    1        0.979   1.239   0.777  0.00  0.00    +0.146 HD
ENDROOT
BRANCH   1   3
ATOM      3  C   LIG    1        2.314   0.310  -0.646  0.00  0.00    +0.038 A 
ATOM      4  C   LIG    1        3.129  -0.347   0.265  0.00  0.00    +0.021 A 
ATOM      5  C   LIG    1        2.919  -0.214   1.627  0.00  0.00    +0.013 A 
ATOM      6  C   LIG    1        3.752  -0.884   2.505  0.00  0.00    +0.021 A 
ATOM      7  C   LIG    1        4.779  -1.674   2.029  0.00  0.00    +0.043 A 
ATOM      8 CL   LIG    1        5.829  -2.517   3.151  0.00  0.00    -0.083 Cl
ATOM      9  C   LIG    1        5.008  -1.822   0.679  0.00  0.00    +0.048 A 
ATOM     10  C   LIG    1        4.170  -1.147  -0.200  0.00  0.00    +0.074 A 
ATOM     11  N   LIG    1        4.371  -1.273  -1.532  0.00  0.00    -0.255 NA
ATOM     12  C   LIG    1        3.583  -0.639  -2.410  0.00  0.00    +0.113 A 
ATOM     13  C   LIG    1        2.547   0.159  -1.994  0.00  0.00    +0.043 A 
ENDBRANCH   1   3
BRANCH   1  14
ATOM     14  C   LIG    1        0.421   1.856  -1.190  0.00  0.00    +0.067 C 
ATOM     15  C   LIG    1        1.253   2.987  -1.799  0.00  0.00    +0.028 C 
BRANCH  14  16
ATOM     16  C   LIG    1       -0.747   2.483  -0.472  0.00  0.00    +0.023 C 
BRANCH  16  17
ATOM     17  C   LIG    1       -1.576   1.399   0.181  0.00  0.00    +0.017 C 
BRANCH  17  18
ATOM     18  C   LIG    1       -2.096   0.443  -0.841  0.00  0.00    +0.084 C 
BRANCH  18  19
ATOM     19  N   LIG    1       -2.909  -0.581  -0.200  0.00  0.00    -0.303 NA
BRANCH  19  20
ATOM     20  C   LIG    1       -2.125  -1.431   0.575  0.00  0.00    +0.081 C 
ATOM     21  C   LIG    1       -2.804  -2.603   1.245  0.00  0.00    +0.020 C 
ENDBRANCH  19  20
BRANCH  19  22
ATOM     22  C   LIG    1       -4.158  -0.107   0.147  0.00  0.00    +0.081 C 
ATOM     23  C   LIG    1       -5.212  -0.955   0.715  0.00  0.00    +0.020 C 
ENDBRANCH  19  22
ENDBRANCH  18  19
ENDBRANCH  17  18
ENDBRANCH  16  17
ENDBRANCH  14  16
ENDBRANCH   1  14
TORSDOF 8
