REMARK  Name = molecules/WHWZLSFABNNENI-HNNXBMFYSA-N.pdb
REMARK                            x       y       z     vdW  Elec       q    Type
REMARK                         _______ _______ _______ _____ _____    ______ ____
ROOT
ATOM      1  C   LIG    1       -1.094   2.301   0.459  0.00  0.00    +0.370 C 
ATOM      2  N   LIG    1       -0.116   3.137   0.480  0.00  0.00    -0.113 NA
ATOM      3  C   LIG    1        1.078   2.601  -0.084  0.00  0.00    +0.286 C 
ATOM      4  C   LIG    1        0.704   1.245  -0.619  0.00  0.00    +0.212 C 
ATOM      5  C   LIG    1        1.641   0.196  -0.277  0.00  0.00    -0.006 A 
ATOM      6  C   LIG    1        1.405  -1.101   0.089  0.00  0.00    -0.037 A 
ATOM      7  C   LIG    1        2.525  -1.911   0.367  0.00  0.00    +0.004 A 
ATOM      8  C   LIG    1        3.811  -1.438   0.279  0.00  0.00    +0.000 A 
ATOM      9  C   LIG    1        4.032  -0.136  -0.090  0.00  0.00    +0.000 A 
ATOM     10  C   LIG    1        0.227  -1.943   0.283  0.00  0.00    +0.074 C 
ATOM     11  C   LIG    1       -1.067  -1.351   0.007  0.00  0.00    -0.006 A 
ATOM     12  C   LIG    1       -2.033  -2.335  -0.073  0.00  0.00    +0.007 A 
ATOM     13  C   LIG    1       -3.361  -2.045  -0.330  0.00  0.00    +0.000 A 
ATOM     14  C   LIG    1       -3.738  -0.730  -0.515  0.00  0.00    +0.003 A 
ATOM     15  C   LIG    1       -2.807   0.305  -0.446  0.00  0.00    +0.040 A 
ATOM     16  C   LIG    1       -1.504  -0.048  -0.186  0.00  0.00    +0.099 A 
ATOM     17  C   LIG    1        2.933   0.660  -0.362  0.00  0.00    +0.007 A 
ATOM     18  N   LIG    1       -0.644   1.097  -0.133  0.00  0.00    -0.182 N 
ENDROOT
BRANCH   1  19
ATOM     19  N   LIG    1       -2.368   2.623   0.970  0.00  0.00    -0.251 N 
ATOM     20  H   LIG    1       -2.881   2.087   1.689  0.00  0.00    +0.241 HD
ATOM     21  H   LIG    1       -2.838   3.476   0.592  0.00  0.00    +0.241 HD
ENDBRANCH   1  19
TORSDOF 1
