REMARK  Name = molecules/WIJZXSAJMHAVGX-DHLKQENFSA-N.pdb
REMARK                            x       y       z     vdW  Elec       q    Type
REMARK                         _______ _______ _______ _____ _____    ______ ____
ROOT
ATOM      1  C   LIG    1        1.551   0.121   0.021  0.00  0.00    +0.242 C 
ATOM      2  O   LIG    1        1.674  -0.669   1.014  0.00  0.00    -0.273 OA
ATOM      3  N   LIG    1        0.238   0.354  -0.446  0.00  0.00    -0.252 N 
ENDROOT
BRANCH   3   4
ATOM      4  C   LIG    1        0.007   1.149  -1.603  0.00  0.00    +0.058 A 
ATOM      5  C   LIG    1        0.190   2.540  -1.493  0.00  0.00    +0.065 A 
ATOM      6  C   LIG    1       -0.027   3.358  -2.560  0.00  0.00    +0.143 A 
ATOM      7  F   LIG    1        0.154   4.705  -2.449  0.00  0.00    -0.204 F 
ATOM      8  C   LIG    1       -0.425   2.860  -3.763  0.00  0.00    +0.149 A 
ATOM      9  N   LIG    1       -0.598   1.544  -3.864  0.00  0.00    -0.259 NA
ATOM     10  C   LIG    1       -0.392   0.694  -2.822  0.00  0.00    +0.134 A 
ENDBRANCH   3   4
BRANCH   1  12
ATOM     11  N   LIG    1        3.959   0.351   0.112  0.00  0.00    -0.244 N 
ATOM     12  C   LIG    1        2.719   0.727  -0.563  0.00  0.00    +0.169 C 
ATOM     13  C   LIG    1        3.071   0.359  -1.972  0.00  0.00    +0.041 C 
ATOM     14  C   LIG    1        4.460   1.018  -2.115  0.00  0.00    +0.099 C 
ATOM     15  C   LIG    1        4.963   0.920  -0.715  0.00  0.00    +0.222 C 
ATOM     16  O   LIG    1        6.116   1.289  -0.315  0.00  0.00    -0.275 OA
BRANCH  11  20
ATOM     17  C   LIG    1        4.663  -1.963   3.594  0.00  0.00    +0.038 A 
ATOM     18  C   LIG    1        4.093  -0.717   3.700  0.00  0.00    +0.056 A 
ATOM     19  C   LIG    1        3.863   0.038   2.568  0.00  0.00    +0.063 A 
ATOM     20  C   LIG    1        4.185  -0.403   1.290  0.00  0.00    +0.129 A 
ATOM     21  N   LIG    1        4.746  -1.641   1.236  0.00  0.00    -0.240 NA
ATOM     22  C   LIG    1        4.977  -2.392   2.325  0.00  0.00    +0.114 A 
BRANCH  18  23
ATOM     23  C   LIG    1        3.755  -0.245   5.012  0.00  0.00    +0.099 C 
ATOM     24  N   LIG    1        3.477   0.114   6.072  0.00  0.00    -0.191 NA
ENDBRANCH  18  23
ENDBRANCH  11  20
ENDBRANCH   1  12
BRANCH   3  25
ATOM     25  C   LIG    1       -0.935  -0.101   0.284  0.00  0.00    +0.199 C 
BRANCH  25  26
ATOM     26  C   LIG    1       -1.848   0.981   0.676  0.00  0.00    +0.000 A 
ATOM     27  C   LIG    1       -1.692   1.623   1.912  0.00  0.00    +0.046 A 
ATOM     28 CL   LIG    1       -0.411   1.140   3.021  0.00  0.00    -0.083 Cl
ATOM     29  C   LIG    1       -2.518   2.647   2.316  0.00  0.00    +0.020 A 
ATOM     30  C   LIG    1       -3.547   3.089   1.510  0.00  0.00    +0.001 A 
ATOM     31  C   LIG    1       -3.706   2.463   0.296  0.00  0.00    +0.000 A 
ATOM     32  C   LIG    1       -2.882   1.438  -0.112  0.00  0.00    +0.007 A 
ENDBRANCH  25  26
BRANCH  25  33
ATOM     33  C   LIG    1       -1.579  -1.289  -0.298  0.00  0.00    +0.239 C 
ATOM     34  N   LIG    1       -2.908  -1.680  -0.031  0.00  0.00    -0.310 N 
ATOM     35  H   LIG    1       -3.480  -1.101   0.613  0.00  0.00    +0.149 HD
ATOM     36  O   LIG    1       -0.919  -2.021  -1.089  0.00  0.00    -0.273 OA
BRANCH  34  37
ATOM     37  C   LIG    1       -3.484  -2.849  -0.621  0.00  0.00    +0.084 C 
ATOM     38  C   LIG    1       -4.237  -3.751   0.308  0.00  0.00    +0.098 C 
ATOM     39  C   LIG    1       -5.402  -3.741  -0.643  0.00  0.00    +0.252 C 
ATOM     40  F   LIG    1       -6.622  -3.384  -0.060  0.00  0.00    -0.206 F 
ATOM     41  F   LIG    1       -5.542  -4.920  -1.388  0.00  0.00    -0.206 F 
ATOM     42  C   LIG    1       -4.753  -2.623  -1.404  0.00  0.00    +0.098 C 
ENDBRANCH  34  37
ENDBRANCH  25  33
ENDBRANCH   3  25
TORSDOF 8
