REMARK  Name = molecules/WIPRQKODGRKUEW-UHFFFAOYSA-N.pdb
REMARK                            x       y       z     vdW  Elec       q    Type
REMARK                         _______ _______ _______ _____ _____    ______ ____
ROOT
ATOM      1  C   LIG    1        1.744  -0.754  -0.284  0.00  0.00    +0.057 A 
ATOM      2  C   LIG    1        2.763  -1.548   0.240  0.00  0.00    +0.092 A 
ATOM      3  N   LIG    1        2.525  -2.816   0.667  0.00  0.00    -0.253 NA
ATOM      4  C   LIG    1        3.474  -3.619   1.176  0.00  0.00    +0.111 A 
ATOM      5  C   LIG    1        4.755  -3.155   1.277  0.00  0.00    +0.020 A 
ATOM      6  C   LIG    1        5.035  -1.864   0.850  0.00  0.00    +0.011 A 
ATOM      7  C   LIG    1        4.043  -1.041   0.325  0.00  0.00    +0.006 A 
ATOM      8  C   LIG    1        4.331   0.239  -0.100  0.00  0.00    +0.055 A 
ATOM      9  C   LIG    1        3.334   1.058  -0.629  0.00  0.00    +0.123 A 
ATOM     10  C   LIG    1        2.068   0.519  -0.699  0.00  0.00    +0.070 A 
ENDROOT
BRANCH   1  11
ATOM     11  N   LIG    1        0.447  -1.314  -0.374  0.00  0.00    -0.342 N 
ATOM     12  H   LIG    1        0.359  -2.346  -0.104  0.00  0.00    +0.146 HD
BRANCH  11  13
ATOM     13  C   LIG    1       -0.741  -0.603  -0.796  0.00  0.00    +0.103 C 
BRANCH  13  14
ATOM     14  C   LIG    1       -1.130   0.364   0.293  0.00  0.00    +0.034 C 
BRANCH  14  15
ATOM     15  C   LIG    1       -2.374   1.124  -0.152  0.00  0.00    +0.086 C 
BRANCH  15  16
ATOM     16  N   LIG    1       -3.415   0.212  -0.390  0.00  0.00    -0.303 NA
BRANCH  16  17
ATOM     17  C   LIG    1       -3.987  -0.481   0.695  0.00  0.00    +0.081 C 
ATOM     18  C   LIG    1       -4.772   0.386   1.647  0.00  0.00    +0.020 C 
ENDBRANCH  16  17
BRANCH  16  19
ATOM     19  C   LIG    1       -4.149   0.305  -1.590  0.00  0.00    +0.081 C 
ATOM     20  C   LIG    1       -5.024   1.529  -1.725  0.00  0.00    +0.020 C 
ENDBRANCH  16  19
ENDBRANCH  15  16
ENDBRANCH  14  15
ENDBRANCH  13  14
ENDBRANCH  11  13
ENDBRANCH   1  11
BRANCH   9  21
ATOM     21  O   LIG    1        3.636   2.343  -1.052  0.00  0.00    -0.495 OA
ATOM     22  C   LIG    1        4.939   2.884  -0.974  0.00  0.00    +0.277 C 
ENDBRANCH   9  21
TORSDOF 8
