REMARK  Name = molecules/WIXFIQKTHUVFDI-LLVKDONJSA-N.pdb
REMARK                            x       y       z     vdW  Elec       q    Type
REMARK                         _______ _______ _______ _____ _____    ______ ____
ROOT
ATOM      1  O   LIG    1       -0.776   1.818   1.088  0.00  0.00    -0.290 OA
ATOM      2  C   LIG    1       -0.402   0.842   0.381  0.00  0.00    +0.193 C 
ATOM      3  C   LIG    1        0.964   0.380   0.578  0.00  0.00    +0.030 A 
ATOM      4  C   LIG    1        1.854   1.046   1.422  0.00  0.00    +0.012 A 
ATOM      5  C   LIG    1        3.145   0.591   1.594  0.00  0.00    +0.001 A 
ATOM      6  C   LIG    1        3.580  -0.527   0.936  0.00  0.00    +0.001 A 
ATOM      7  C   LIG    1        2.701  -1.191   0.099  0.00  0.00    +0.012 A 
ATOM      8  C   LIG    1        1.408  -0.747  -0.082  0.00  0.00    +0.028 A 
ATOM      9  C   LIG    1        0.463  -1.422  -0.955  0.00  0.00    +0.166 C 
ATOM     10  C   LIG    1       -0.964  -1.107  -1.059  0.00  0.00    +0.119 C 
ATOM     11  O   LIG    1        0.916  -2.357  -1.682  0.00  0.00    -0.292 OA
ATOM     12  C   LIG    1       -1.348   0.245  -0.575  0.00  0.00    +0.180 C 
ATOM     13  C   LIG    1       -1.571   1.152  -1.783  0.00  0.00    +0.047 C 
ENDROOT
BRANCH  12  14
ATOM     14  S   LIG    1       -2.938   0.153   0.259  0.00  0.00    +0.093 S 
ATOM     15  O   LIG    1       -3.347   1.563   0.573  0.00  0.00    -0.146 OA
ATOM     16  O   LIG    1       -3.921  -0.390  -0.729  0.00  0.00    -0.146 OA
BRANCH  14  17
ATOM     17  O   LIG    1       -2.838  -0.793   1.636  0.00  0.00    -0.253 OA
ATOM     18  H   LIG    1       -2.151  -0.381   2.220  0.00  0.00    +0.244 HD
ENDBRANCH  14  17
ENDBRANCH  12  14
TORSDOF 2
