REMARK  Name = molecules/WJAJPNHVVFWKKL-WRWORJQWSA-N.pdb
REMARK                            x       y       z     vdW  Elec       q    Type
REMARK                         _______ _______ _______ _____ _____    ______ ____
ROOT
ATOM      1  C   LIG    1       -0.170   0.113   0.320  0.00  0.00    +0.027 A 
ATOM      2  C   LIG    1        0.210   1.450   0.539  0.00  0.00    +0.126 A 
ATOM      3  C   LIG    1        1.480   1.910   0.300  0.00  0.00    +0.049 A 
ATOM      4  C   LIG    1        2.395   0.977  -0.188  0.00  0.00    +0.049 A 
ATOM      5  C   LIG    1        2.063  -0.366  -0.426  0.00  0.00    +0.121 A 
ATOM      6  C   LIG    1        0.767  -0.760  -0.158  0.00  0.00    +0.055 A 
ENDROOT
BRANCH   2   7
ATOM      7  O   LIG    1       -0.738   2.311   1.009  0.00  0.00    -0.495 OA
ATOM      8  C   LIG    1       -0.635   3.660   1.258  0.00  0.00    +0.277 C 
ENDBRANCH   2   7
BRANCH   5   9
ATOM      9  O   LIG    1        3.054  -1.197  -0.907  0.00  0.00    -0.495 OA
ATOM     10  C   LIG    1        4.381  -0.900  -1.202  0.00  0.00    +0.277 C 
ENDBRANCH   5   9
BRANCH   1  11
ATOM     11  C   LIG    1       -1.470  -0.442   0.724  0.00  0.00    +0.164 C 
BRANCH  11  12
ATOM     12  O   LIG    1       -1.075  -1.674   1.412  0.00  0.00    -0.386 OA
ATOM     13  H   LIG    1       -1.086  -2.423   0.770  0.00  0.00    +0.210 HD
ENDBRANCH  11  12
BRANCH  11  14
ATOM     14  C   LIG    1       -2.321  -0.970  -0.398  0.00  0.00    +0.081 C 
ATOM     15  C   LIG    1       -3.462  -1.737   0.216  0.00  0.00    +0.026 C 
BRANCH  14  16
ATOM     16  N   LIG    1       -1.655  -1.855  -1.308  0.00  0.00    -0.325 NA
ATOM     17  H   LIG    1       -1.835  -2.835  -1.061  0.00  0.00    +0.119 HD
ATOM     18  H   LIG    1       -1.970  -1.722  -2.330  0.00  0.00    +0.119 HD
ENDBRANCH  14  16
ENDBRANCH  11  14
ENDBRANCH   1  11
TORSDOF 6
