REMARK  Name = molecules/WJCNZQLZVWNLKY-UHFFFAOYSA-N.pdb
REMARK                            x       y       z     vdW  Elec       q    Type
REMARK                         _______ _______ _______ _____ _____    ______ ____
ROOT
ATOM      1  C   LIG    1        0.952   0.128  -0.014  0.00  0.00    +0.158 A 
ATOM      2  N   LIG    1        0.189  -0.979   0.015  0.00  0.00    -0.337 N 
ATOM      3  H   LIG    1        0.554  -1.964   0.027  0.00  0.00    +0.167 HD
ATOM      4  C   LIG    1       -1.111  -0.634   0.025  0.00  0.00    +0.067 A 
ATOM      5  C   LIG    1       -2.303  -1.352   0.053  0.00  0.00    +0.028 A 
ATOM      6  C   LIG    1       -3.529  -0.720   0.058  0.00  0.00    +0.002 A 
ATOM      7  C   LIG    1       -3.589   0.658   0.035  0.00  0.00    +0.002 A 
ATOM      8  C   LIG    1       -2.391   1.368   0.007  0.00  0.00    +0.030 A 
ATOM      9  C   LIG    1       -1.170   0.728   0.002  0.00  0.00    +0.090 A 
ATOM     10  N   LIG    1        0.104   1.158  -0.021  0.00  0.00    -0.226 NA
ENDROOT
BRANCH   1  11
ATOM     11  C   LIG    1        2.454   0.182  -0.035  0.00  0.00    +0.113 A 
ATOM     12  N   LIG    1        3.216  -0.888  -0.026  0.00  0.00    -0.244 NA
ATOM     13  C   LIG    1        4.523  -0.757  -0.045  0.00  0.00    +0.156 A 
ATOM     14  S   LIG    1        4.740   0.932  -0.077  0.00  0.00    -0.083 S 
ATOM     15  C   LIG    1        3.100   1.396  -0.064  0.00  0.00    +0.078 A 
ENDBRANCH   1  11
TORSDOF 1
