REMARK  Name = molecules/WJDDCFNFNAHLAF-UHFFFAOYSA-N.pdb
REMARK                            x       y       z     vdW  Elec       q    Type
REMARK                         _______ _______ _______ _____ _____    ______ ____
ROOT
ATOM      1  N   LIG    1       -0.142   0.169  -0.267  0.00  0.00    -0.281 N 
ATOM      2  C   LIG    1        0.810  -0.306   0.652  0.00  0.00    +0.254 C 
ATOM      3  O   LIG    1        0.462  -0.906   1.681  0.00  0.00    -0.270 OA
ATOM      4  H   LIG    1        0.213   0.666  -1.170  0.00  0.00    +0.155 HD
ENDROOT
BRANCH   2   5
ATOM      5  C   LIG    1        2.225  -0.103   0.394  0.00  0.00    +0.101 A 
ATOM      6  C   LIG    1        3.019  -1.238   0.419  0.00  0.00    +0.020 A 
ATOM      7  C   LIG    1        4.357  -1.175   0.088  0.00  0.00    +0.018 A 
ATOM      8  C   LIG    1        4.883   0.054  -0.266  0.00  0.00    +0.086 A 
ATOM      9  N   LIG    1        4.085   1.144  -0.279  0.00  0.00    -0.328 N 
ATOM     10  H   LIG    1        4.530   2.063  -0.546  0.00  0.00    +0.168 HD
ATOM     11  C   LIG    1        2.776   1.083   0.043  0.00  0.00    +0.261 A 
ATOM     12  O   LIG    1        2.057   2.114   0.027  0.00  0.00    -0.267 OA
ENDBRANCH   2   5
BRANCH   1  13
ATOM     13  C   LIG    1       -1.551   0.067  -0.154  0.00  0.00    +0.040 A 
ATOM     14  C   LIG    1       -2.274   1.135   0.375  0.00  0.00    -0.029 A 
ATOM     15  C   LIG    1       -1.500   2.313   0.832  0.00  0.00    +0.045 C 
ATOM     16  C   LIG    1       -3.640   1.105   0.483  0.00  0.00    +0.005 A 
ATOM     17  C   LIG    1       -4.360   0.007   0.072  0.00  0.00    +0.001 A 
ATOM     18  C   LIG    1       -3.672  -1.066  -0.453  0.00  0.00    +0.005 A 
ATOM     19  C   LIG    1       -2.276  -1.016  -0.557  0.00  0.00    -0.029 A 
ATOM     20  C   LIG    1       -1.574  -2.213  -1.090  0.00  0.00    +0.045 C 
ENDBRANCH   1  13
TORSDOF 2
