REMARK  Name = molecules/WJIZVQNUJVMJAZ-UHFFFAOYSA-N.pdb
REMARK                            x       y       z     vdW  Elec       q    Type
REMARK                         _______ _______ _______ _____ _____    ______ ____
ROOT
ATOM      1  C   LIG    1        1.552  -0.365  -0.417  0.00  0.00    +0.213 C 
ENDROOT
BRANCH   1   2
ATOM      2  C   LIG    1        2.225   0.919  -0.078  0.00  0.00    -0.001 A 
ATOM      3  C   LIG    1        1.638   1.976   0.543  0.00  0.00    +0.007 A 
ATOM      4  C   LIG    1        2.370   3.136   0.808  0.00  0.00    +0.000 A 
ATOM      5  C   LIG    1        3.704   3.233   0.446  0.00  0.00    +0.000 A 
ATOM      6  C   LIG    1        4.295   2.161  -0.183  0.00  0.00    +0.000 A 
ATOM      7  C   LIG    1        3.564   1.022  -0.439  0.00  0.00    +0.007 A 
ENDBRANCH   1   2
BRANCH   1   8
ATOM      8  C   LIG    1        2.264  -1.440   0.320  0.00  0.00    -0.001 A 
ATOM      9  C   LIG    1        2.261  -1.366   1.705  0.00  0.00    +0.007 A 
ATOM     10  C   LIG    1        2.899  -2.319   2.476  0.00  0.00    +0.000 A 
ATOM     11  C   LIG    1        3.547  -3.361   1.826  0.00  0.00    +0.000 A 
ATOM     12  C   LIG    1        3.543  -3.425   0.445  0.00  0.00    +0.000 A 
ATOM     13  C   LIG    1        2.908  -2.474  -0.319  0.00  0.00    +0.007 A 
ENDBRANCH   1   8
BRANCH   1  14
ATOM     14  C   LIG    1        0.114  -0.340  -0.177  0.00  0.00    +0.349 C 
ATOM     15  O   LIG    1       -0.327  -0.214   0.984  0.00  0.00    -0.247 OA
BRANCH  14  16
ATOM     16  O   LIG    1       -0.766  -0.452  -1.226  0.00  0.00    -0.455 OA
BRANCH  16  17
ATOM     17  C   LIG    1       -2.187  -0.430  -1.105  0.00  0.00    +0.121 C 
ATOM     18  C   LIG    1       -2.711  -1.665  -0.463  0.00  0.00    +0.057 C 
ATOM     19  C   LIG    1       -2.700  -0.452  -2.556  0.00  0.00    +0.057 C 
BRANCH  17  20
ATOM     20  C   LIG    1       -2.595   0.869  -0.531  0.00  0.00    +0.131 C 
BRANCH  20  21
ATOM     21  N   LIG    1       -3.988   1.087  -0.324  0.00  0.00    -0.305 NA
ATOM     22  C   LIG    1       -4.600   0.297   0.709  0.00  0.00    +0.104 C 
ATOM     23  C   LIG    1       -4.126   2.496   0.086  0.00  0.00    +0.104 C 
ENDBRANCH  20  21
ENDBRANCH  17  20
ENDBRANCH  16  17
ENDBRANCH  14  16
ENDBRANCH   1  14
BRANCH   1  24
ATOM     24  O   LIG    1        1.812  -0.550  -1.795  0.00  0.00    -0.370 OA
ATOM     25  H   LIG    1        1.314  -1.380  -2.043  0.00  0.00    +0.212 HD
ENDBRANCH   1  24
TORSDOF 8
