REMARK  Name = molecules/WJOHZNCJWYWUJD-IUGZLZTKSA-N.pdb
REMARK                            x       y       z     vdW  Elec       q    Type
REMARK                         _______ _______ _______ _____ _____    ______ ____
ROOT
ATOM      1  C   LIG    1        4.210   0.158   1.642  0.00  0.00    -0.009 C 
ATOM      2  C   LIG    1        5.256  -0.640   1.769  0.00  0.00    +0.047 C 
ATOM      3  C   LIG    1        5.884  -1.170   0.555  0.00  0.00    +0.179 C 
ATOM      4  O   LIG    1        6.868  -1.919   0.619  0.00  0.00    -0.288 OA
ATOM      5  C   LIG    1        5.308  -0.783  -0.720  0.00  0.00    +0.054 C 
ATOM      6  C   LIG    1        4.286  -0.002  -0.773  0.00  0.00    -0.020 C 
ATOM      7  C   LIG    1        3.685   0.302  -2.137  0.00  0.00    +0.194 C 
ATOM      8  C   LIG    1        2.314  -0.329  -2.050  0.00  0.00    +0.048 C 
ATOM      9  C   LIG    1        1.523   0.444  -1.023  0.00  0.00    +0.037 C 
ATOM     10  C   LIG    1        2.155   0.235   0.365  0.00  0.00    +0.153 C 
ATOM     11  C   LIG    1        1.306   0.858   1.394  0.00  0.00    +0.154 C 
ATOM     12  C   LIG    1       -0.101   0.316   1.412  0.00  0.00    +0.044 C 
ATOM     13  C   LIG    1       -0.770   0.498   0.051  0.00  0.00    +0.012 C 
ATOM     14  C   LIG    1       -1.956  -0.403  -0.115  0.00  0.00    +0.165 C 
ATOM     15  O   LIG    1       -2.000  -1.298   0.974  0.00  0.00    -0.332 OA
ATOM     16  C   LIG    1       -1.785  -2.558   0.442  0.00  0.00    +0.166 C 
ATOM     17  C   LIG    1       -1.026  -3.449   1.381  0.00  0.00    +0.074 C 
ATOM     18  C   LIG    1       -3.085  -3.274   0.117  0.00  0.00    +0.074 C 
ATOM     19  O   LIG    1       -1.145  -2.387  -0.789  0.00  0.00    -0.343 OA
ATOM     20  C   LIG    1       -1.723  -1.254  -1.355  0.00  0.00    +0.162 C 
ATOM     21  C   LIG    1       -0.634  -0.432  -2.083  0.00  0.00    +0.039 C 
ATOM     22  C   LIG    1       -1.006   1.912  -0.277  0.00  0.00    +0.015 C 
ATOM     23  F   LIG    1        2.084  -1.155   0.558  0.00  0.00    -0.238 F 
ATOM     24  C   LIG    1        0.207  -0.192  -0.901  0.00  0.00    +0.007 C 
ATOM     25  F   LIG    1        4.453  -0.256  -3.126  0.00  0.00    -0.241 F 
ATOM     26  C   LIG    1        3.604   0.579   0.373  0.00  0.00    +0.047 C 
ATOM     27  C   LIG    1        3.860   2.082   0.297  0.00  0.00    +0.023 C 
ENDROOT
BRANCH  11  28
ATOM     28  O   LIG    1        1.247   2.221   1.441  0.00  0.00    -0.389 OA
ATOM     29  H   LIG    1        1.413   2.724   0.639  0.00  0.00    +0.210 HD
ENDBRANCH  11  28
BRANCH  14  30
ATOM     30  C   LIG    1       -3.263   0.259  -0.292  0.00  0.00    +0.205 C 
ATOM     31  O   LIG    1       -3.610   0.935  -1.239  0.00  0.00    -0.291 OA
BRANCH  30  32
ATOM     32  C   LIG    1       -4.295   0.105   0.788  0.00  0.00    +0.309 C 
BRANCH  32  33
ATOM     33  O   LIG    1       -5.490   0.823   0.478  0.00  0.00    -0.457 OA
BRANCH  33  34
ATOM     34  C   LIG    1       -5.490   2.197   0.286  0.00  0.00    +0.304 C 
ATOM     35  O   LIG    1       -4.427   2.860   0.380  0.00  0.00    -0.251 OA
ATOM     36  C   LIG    1       -6.726   2.961  -0.038  0.00  0.00    +0.136 C 
ENDBRANCH  33  34
ENDBRANCH  32  33
ENDBRANCH  30  32
ENDBRANCH  14  30
TORSDOF 5
