REMARK  Name = molecules/WLOHNSSYAXHWNR-DWIOZXRMSA-N.pdb
REMARK                            x       y       z     vdW  Elec       q    Type
REMARK                         _______ _______ _______ _____ _____    ______ ____
ROOT
ATOM      1  C   LIG    1        4.613  -1.109   2.529  0.00  0.00    +0.012 C 
ATOM      2  C   LIG    1        3.369  -0.728   1.729  0.00  0.00    +0.035 C 
ATOM      3  C   LIG    1        3.620   0.479   0.847  0.00  0.00    +0.064 C 
ATOM      4  C   LIG    1        2.589   1.534   0.928  0.00  0.00    +0.006 C 
ATOM      5  C   LIG    1        2.930   2.445   2.072  0.00  0.00    +0.009 C 
ATOM      6  C   LIG    1        1.160   1.047   0.874  0.00  0.00    +0.042 C 
ATOM      7  C   LIG    1        0.157   2.134   1.070  0.00  0.00    +0.090 C 
ATOM      8  C   LIG    1        0.036   2.402   2.555  0.00  0.00    +0.044 C 
ATOM      9  C   LIG    1       -1.082   2.138   0.281  0.00  0.00    +0.158 C 
ATOM     10  C   LIG    1       -2.010   1.073   0.017  0.00  0.00    +0.047 C 
ATOM     11  C   LIG    1       -1.746  -0.398   0.218  0.00  0.00    +0.140 C 
ATOM     12  C   LIG    1       -1.808  -0.705   1.699  0.00  0.00    +0.124 C 
ATOM     13  C   LIG    1       -1.056  -1.890   2.150  0.00  0.00    +0.313 C 
ATOM     14  O   LIG    1       -1.723  -2.599   2.997  0.00  0.00    -0.250 OA
ATOM     15  O   LIG    1        0.155  -2.290   1.810  0.00  0.00    -0.458 OA
ATOM     16  C   LIG    1        0.872  -2.857   0.814  0.00  0.00    +0.210 C 
ATOM     17  C   LIG    1        2.329  -2.988   1.283  0.00  0.00    +0.126 C 
ATOM     18  C   LIG    1        2.383  -3.132   2.776  0.00  0.00    +0.048 C 
ATOM     19  C   LIG    1       -3.273  -0.749   2.129  0.00  0.00    +0.022 C 
ATOM     20  C   LIG    1       -2.364   1.194  -1.510  0.00  0.00    +0.013 C 
ATOM     21  N   LIG    1        3.894   0.035  -0.469  0.00  0.00    -0.286 NA
ATOM     22  C   LIG    1        4.687  -1.110  -0.651  0.00  0.00    +0.213 C 
ATOM     23  O   LIG    1        4.364  -2.182   0.214  0.00  0.00    -0.353 OA
ATOM     24  H   LIG    1        3.490   0.517  -1.258  0.00  0.00    +0.125 HD
ATOM     25  C   LIG    1        3.139  -1.865   0.750  0.00  0.00    +0.160 C 
ENDROOT
BRANCH   7  26
ATOM     26  O   LIG    1        0.898   3.263   0.509  0.00  0.00    -0.386 OA
ATOM     27  H   LIG    1        0.920   3.105  -0.470  0.00  0.00    +0.210 HD
ENDBRANCH   7  26
BRANCH  16  28
ATOM     28  C   LIG    1        0.399  -4.199   0.312  0.00  0.00    +0.044 C 
ATOM     29  C   LIG    1        0.360  -5.289   1.324  0.00  0.00    +0.007 C 
ENDBRANCH  16  28
BRANCH  17  30
ATOM     30  O   LIG    1        2.873  -4.181   0.753  0.00  0.00    -0.383 OA
ATOM     31  H   LIG    1        3.143  -3.957  -0.187  0.00  0.00    +0.210 HD
ENDBRANCH  17  30
BRANCH  11  32
ATOM     32  O   LIG    1       -2.748  -1.067  -0.448  0.00  0.00    -0.347 OA
BRANCH  32  33
ATOM     33  C   LIG    1       -2.633  -1.994  -1.365  0.00  0.00    +0.254 C 
ATOM     34  C   LIG    1       -3.420  -3.203  -0.853  0.00  0.00    +0.098 C 
ATOM     35  C   LIG    1       -3.634  -4.293  -1.816  0.00  0.00    +0.099 C 
ATOM     36  C   LIG    1       -2.584  -5.392  -1.740  0.00  0.00    +0.044 C 
ATOM     37  C   LIG    1       -3.839  -3.808  -3.199  0.00  0.00    +0.175 C 
ATOM     38  C   LIG    1       -3.376  -2.431  -3.516  0.00  0.00    +0.149 C 
ATOM     39  C   LIG    1       -2.019  -2.434  -4.208  0.00  0.00    +0.041 C 
ATOM     40  O   LIG    1       -3.429  -1.560  -2.467  0.00  0.00    -0.346 OA
BRANCH  37  41
ATOM     41  O   LIG    1       -5.181  -3.973  -3.587  0.00  0.00    -0.386 OA
ATOM     42  H   LIG    1       -5.277  -4.379  -4.471  0.00  0.00    +0.210 HD
ENDBRANCH  37  41
BRANCH  35  43
ATOM     43  O   LIG    1       -4.854  -4.923  -1.440  0.00  0.00    -0.374 OA
ATOM     44  C   LIG    1       -4.831  -5.441  -0.173  0.00  0.00    +0.194 C 
ENDBRANCH  35  43
ENDBRANCH  32  33
ENDBRANCH  11  32
BRANCH  22  45
ATOM     45  C   LIG    1        6.188  -0.870  -0.611  0.00  0.00    +0.207 C 
BRANCH  45  46
ATOM     46  O   LIG    1        6.578  -0.004  -1.589  0.00  0.00    -0.374 OA
BRANCH  46  47
ATOM     47  C   LIG    1        7.889   0.340  -1.658  0.00  0.00    +0.188 C 
BRANCH  47  48
ATOM     48  C   LIG    1        8.889  -0.736  -1.877  0.00  0.00    +0.187 C 
BRANCH  48  49
ATOM     49  O   LIG    1        8.944  -1.721  -0.927  0.00  0.00    -0.381 OA
ATOM     50  C   LIG    1        9.940  -2.629  -1.292  0.00  0.00    +0.194 C 
ENDBRANCH  48  49
ENDBRANCH  47  48
ENDBRANCH  46  47
ENDBRANCH  45  46
ENDBRANCH  22  45
BRANCH   9  51
ATOM     51  O   LIG    1       -1.861   3.285   0.630  0.00  0.00    -0.342 OA
BRANCH  51  52
ATOM     52  C   LIG    1       -1.849   4.352  -0.173  0.00  0.00    +0.281 C 
ATOM     53  O   LIG    1       -1.375   5.528   0.355  0.00  0.00    -0.346 OA
ATOM     54  C   LIG    1       -2.099   6.272   1.185  0.00  0.00    +0.120 C 
ATOM     55  C   LIG    1       -1.662   5.963   2.626  0.00  0.00    +0.038 C 
ATOM     56  C   LIG    1       -3.583   5.990   1.143  0.00  0.00    +0.053 C 
ATOM     57  C   LIG    1       -3.874   5.819  -0.348  0.00  0.00    +0.092 C 
ATOM     58  C   LIG    1       -3.246   4.524  -0.779  0.00  0.00    +0.187 C 
BRANCH  57  59
ATOM     59  N   LIG    1       -5.240   5.968  -0.593  0.00  0.00    -0.303 NA
ATOM     60  C   LIG    1       -6.173   5.108   0.022  0.00  0.00    +0.105 C 
ATOM     61  C   LIG    1       -5.714   7.231  -1.040  0.00  0.00    +0.105 C 
ENDBRANCH  57  59
BRANCH  58  62
ATOM     62  O   LIG    1       -3.216   4.566  -2.176  0.00  0.00    -0.385 OA
ATOM     63  H   LIG    1       -2.303   4.551  -2.545  0.00  0.00    +0.210 HD
ENDBRANCH  58  62
ENDBRANCH  51  52
ENDBRANCH   9  51
TORSDOF 16
