REMARK  Name = molecules/WMCMJIGLYZDKRN-ZDUSSCGKSA-N.pdb
REMARK                            x       y       z     vdW  Elec       q    Type
REMARK                         _______ _______ _______ _____ _____    ______ ____
ROOT
ATOM      1  N   LIG    1        0.606   1.302   0.189  0.00  0.00    -0.312 NA
ATOM      2  H   LIG    1        0.238   0.928  -0.716  0.00  0.00    +0.122 HD
ENDROOT
BRANCH   1   3
ATOM      3  C   LIG    1       -0.340   1.270   1.254  0.00  0.00    +0.102 C 
BRANCH   3   4
ATOM      4  C   LIG    1       -1.022  -0.017   1.524  0.00  0.00    +0.138 C 
BRANCH   4   5
ATOM      5  N   LIG    1       -1.820  -0.547   0.470  0.00  0.00    -0.323 N 
ATOM      6  C   LIG    1       -3.142  -0.265   0.279  0.00  0.00    +0.151 A 
ATOM      7  C   LIG    1       -4.006   0.544   0.968  0.00  0.00    +0.282 A 
ATOM      8  O   LIG    1       -3.600   1.174   1.968  0.00  0.00    -0.265 OA
ATOM      9  N   LIG    1       -5.276   0.648   0.560  0.00  0.00    -0.262 N 
ATOM     10  C   LIG    1       -6.168   1.515   1.311  0.00  0.00    +0.157 C 
ATOM     11  C   LIG    1       -5.702  -0.029  -0.508  0.00  0.00    +0.333 A 
ATOM     12  O   LIG    1       -6.914   0.086  -0.877  0.00  0.00    -0.246 OA
ATOM     13  N   LIG    1       -4.900  -0.837  -1.224  0.00  0.00    -0.280 N 
ATOM     14  C   LIG    1       -5.378  -1.566  -2.374  0.00  0.00    +0.155 C 
ATOM     15  C   LIG    1       -3.612  -0.949  -0.819  0.00  0.00    +0.168 A 
ATOM     16  N   LIG    1       -2.576  -1.647  -1.295  0.00  0.00    -0.218 NA
ATOM     17  C   LIG    1       -1.499  -1.393  -0.504  0.00  0.00    +0.202 A 
ENDBRANCH   4   5
ENDBRANCH   3   4
ENDBRANCH   1   3
BRANCH   1  18
ATOM     18  C   LIG    1        1.795   0.492   0.508  0.00  0.00    +0.117 C 
BRANCH  18  19
ATOM     19  C   LIG    1        2.822   0.763  -0.535  0.00  0.00    +0.158 C 
BRANCH  19  20
ATOM     20  C   LIG    1        4.126   0.122  -0.228  0.00  0.00    -0.014 A 
ATOM     21  C   LIG    1        4.303  -0.750   0.810  0.00  0.00    +0.010 A 
ATOM     22  C   LIG    1        5.560  -1.308   1.030  0.00  0.00    +0.049 A 
ATOM     23  C   LIG    1        6.651  -1.012   0.230  0.00  0.00    +0.158 A 
ATOM     24  C   LIG    1        6.460  -0.133  -0.813  0.00  0.00    +0.159 A 
ATOM     25  C   LIG    1        5.199   0.427  -1.033  0.00  0.00    +0.055 A 
BRANCH  23  26
ATOM     26  O   LIG    1        7.893  -1.586   0.479  0.00  0.00    -0.503 OA
ATOM     27  H   LIG    1        8.653  -1.332  -0.131  0.00  0.00    +0.292 HD
ENDBRANCH  23  26
BRANCH  24  28
ATOM     28  O   LIG    1        7.538   0.183  -1.632  0.00  0.00    -0.503 OA
ATOM     29  H   LIG    1        7.382   0.835  -2.387  0.00  0.00    +0.292 HD
ENDBRANCH  24  28
ENDBRANCH  19  20
BRANCH  19  30
ATOM     30  O   LIG    1        2.456   0.451  -1.819  0.00  0.00    -0.386 OA
ATOM     31  H   LIG    1        2.218   1.263  -2.328  0.00  0.00    +0.210 HD
ENDBRANCH  19  30
ENDBRANCH  18  19
ENDBRANCH   1  18
TORSDOF 9
