REMARK  Name = molecules/WMFSSTNVXWNLKI-LJQANCHMSA-N.pdb
REMARK                            x       y       z     vdW  Elec       q    Type
REMARK                         _______ _______ _______ _____ _____    ______ ____
ROOT
ATOM      1  C   LIG    1        0.973   0.897  -0.132  0.00  0.00    +0.180 C 
ATOM      2  N   LIG    1        0.755   1.264   1.175  0.00  0.00    -0.256 NA
ATOM      3  C   LIG    1       -0.225   0.857   2.044  0.00  0.00    +0.184 C 
ATOM      4  C   LIG    1       -0.921  -0.432   1.773  0.00  0.00    +0.234 C 
ATOM      5  O   LIG    1       -0.937  -1.330   2.646  0.00  0.00    -0.274 OA
ATOM      6  N   LIG    1       -1.608  -0.741   0.538  0.00  0.00    -0.268 N 
ATOM      7  C   LIG    1       -1.250  -0.173  -0.718  0.00  0.00    +0.044 A 
ATOM      8  C   LIG    1       -2.211  -0.424  -1.692  0.00  0.00    +0.025 A 
ATOM      9  C   LIG    1       -2.051   0.127  -2.961  0.00  0.00    +0.022 A 
ATOM     10  C   LIG    1       -0.963   0.913  -3.267  0.00  0.00    +0.041 A 
ATOM     11  C   LIG    1       -0.014   1.157  -2.303  0.00  0.00    +0.030 A 
ATOM     12 CL   LIG    1       -0.820   1.583  -4.891  0.00  0.00    -0.084 Cl
ATOM     13  C   LIG    1        1.121   2.630   1.327  0.00  0.00    +0.116 C 
ATOM     14  C   LIG    1        2.204   2.748   0.242  0.00  0.00    +0.178 C 
ATOM     15  O   LIG    1        1.700   1.932  -0.739  0.00  0.00    -0.349 OA
ATOM     16  C   LIG    1       -0.154   0.609  -1.019  0.00  0.00    +0.027 A 
ENDROOT
BRANCH   1  19
ATOM     17  F   LIG    1        2.278  -0.289  -2.436  0.00  0.00    -0.205 F 
ATOM     18  C   LIG    1        2.523  -0.789  -1.231  0.00  0.00    +0.131 A 
ATOM     19  C   LIG    1        1.917  -0.279  -0.117  0.00  0.00    +0.039 A 
ATOM     20  C   LIG    1        2.268  -0.908   1.079  0.00  0.00    +0.011 A 
ATOM     21  C   LIG    1        3.150  -1.960   1.165  0.00  0.00    +0.001 A 
ATOM     22  C   LIG    1        3.729  -2.438   0.036  0.00  0.00    +0.003 A 
ATOM     23  C   LIG    1        3.424  -1.858  -1.175  0.00  0.00    +0.039 A 
ENDBRANCH   1  19
BRANCH   6  24
ATOM     24  C   LIG    1       -2.701  -1.679   0.619  0.00  0.00    +0.141 C 
BRANCH  24  25
ATOM     25  C   LIG    1       -4.033  -1.067   0.938  0.00  0.00    +0.175 C 
BRANCH  25  26
ATOM     26  O   LIG    1       -3.985  -0.426   2.218  0.00  0.00    -0.393 OA
ATOM     27  H   LIG    1       -4.925  -0.268   2.502  0.00  0.00    +0.209 HD
ENDBRANCH  25  26
ENDBRANCH  24  25
ENDBRANCH   6  24
TORSDOF 4
