REMARK  Name = molecules/WMPXPUYPYQKQCX-UHFFFAOYSA-N.pdb
REMARK                            x       y       z     vdW  Elec       q    Type
REMARK                         _______ _______ _______ _____ _____    ______ ____
ROOT
ATOM      1  S   LIG    1       -0.552   1.335   2.124  0.00  0.00    +0.073 S 
ATOM      2  O   LIG    1       -0.244   0.307   3.206  0.00  0.00    -0.150 OA
ATOM      3  O   LIG    1       -1.053   2.581   2.820  0.00  0.00    -0.150 OA
ENDROOT
BRANCH   1   4
ATOM      4  C   LIG    1       -1.861   0.712   1.163  0.00  0.00    +0.109 A 
ATOM      5  C   LIG    1       -2.009  -0.653   1.057  0.00  0.00    +0.030 A 
ATOM      6  C   LIG    1       -3.037  -1.226   0.308  0.00  0.00    +0.024 A 
ATOM      7  C   LIG    1       -3.942  -0.422  -0.353  0.00  0.00    +0.025 A 
ATOM      8  C   LIG    1       -3.790   0.941  -0.244  0.00  0.00    +0.024 A 
ATOM      9  C   LIG    1       -2.764   1.507   0.504  0.00  0.00    +0.030 A 
BRANCH   7  10
ATOM     10  N   LIG    1       -4.994  -1.009  -1.121  0.00  0.00    -0.358 N 
ATOM     11  H   LIG    1       -5.953  -0.598  -1.183  0.00  0.00    +0.142 HD
ATOM     12  H   LIG    1       -4.842  -1.894  -1.662  0.00  0.00    +0.142 HD
ENDBRANCH   7  10
ENDBRANCH   1   4
BRANCH   1  13
ATOM     13  N   LIG    1        0.871   1.664   1.260  0.00  0.00    -0.199 N 
ATOM     14  H   LIG    1        1.248   2.626   1.217  0.00  0.00    +0.175 HD
BRANCH  13  15
ATOM     15  C   LIG    1        1.584   0.645   0.574  0.00  0.00    +0.145 A 
ATOM     16  N   LIG    1        1.162  -0.629   0.581  0.00  0.00    -0.219 NA
ATOM     17  C   LIG    1        1.846  -1.569  -0.068  0.00  0.00    +0.227 A 
ATOM     18  N   LIG    1        2.962  -1.263  -0.737  0.00  0.00    -0.201 NA
ATOM     19  C   LIG    1        3.464  -0.018  -0.801  0.00  0.00    +0.219 A 
ATOM     20  C   LIG    1        2.756   0.951  -0.131  0.00  0.00    +0.112 A 
BRANCH  19  21
ATOM     21  O   LIG    1        4.624   0.256  -1.506  0.00  0.00    -0.480 OA
ATOM     22  C   LIG    1        5.272  -0.817  -2.160  0.00  0.00    +0.279 C 
ENDBRANCH  19  21
ENDBRANCH  13  15
ENDBRANCH   1  13
TORSDOF 5
