REMARK  Name = molecules/WNAQOLSMVPFGTE-UHFFFAOYSA-N.pdb
REMARK                            x       y       z     vdW  Elec       q    Type
REMARK                         _______ _______ _______ _____ _____    ______ ____
ROOT
ATOM      1  N   LIG    1       -0.731   0.538  -0.676  0.00  0.00    -0.323 N 
ATOM      2  C   LIG    1       -1.688  -0.309  -0.229  0.00  0.00    +0.069 A 
ATOM      3  C   LIG    1       -2.612   0.444   0.424  0.00  0.00    +0.089 A 
ATOM      4  C   LIG    1       -3.720  -0.189   0.988  0.00  0.00    +0.030 A 
ATOM      5  C   LIG    1       -3.854  -1.544   0.874  0.00  0.00    +0.002 A 
ATOM      6  C   LIG    1       -2.917  -2.276   0.215  0.00  0.00    +0.002 A 
ATOM      7  N   LIG    1       -2.203   1.716   0.360  0.00  0.00    -0.233 NA
ATOM      8  C   LIG    1       -1.830  -1.690  -0.343  0.00  0.00    +0.028 A 
ATOM      9  C   LIG    1       -1.039   1.795  -0.318  0.00  0.00    +0.108 A 
ATOM     10  C   LIG    1       -0.258   3.034  -0.612  0.00  0.00    +0.086 C 
ENDROOT
BRANCH   1  11
ATOM     11  C   LIG    1        0.459   0.162  -1.425  0.00  0.00    +0.158 C 
BRANCH  11  12
ATOM     12  C   LIG    1        1.627  -0.128  -0.554  0.00  0.00    -0.028 A 
ATOM     13  C   LIG    1        1.887  -1.377  -0.031  0.00  0.00    +0.007 A 
ATOM     14  C   LIG    1        2.994  -1.626   0.785  0.00  0.00    +0.020 A 
ATOM     15  C   LIG    1        3.880  -0.621   1.101  0.00  0.00    +0.041 A 
ATOM     16 CL   LIG    1        5.280  -0.923   2.129  0.00  0.00    -0.084 Cl
ATOM     17  C   LIG    1        3.633   0.632   0.585  0.00  0.00    +0.020 A 
ATOM     18  C   LIG    1        2.539   0.878  -0.220  0.00  0.00    +0.007 A 
ENDBRANCH  11  12
ENDBRANCH   1  11
TORSDOF 2
