REMARK  Name = molecules/WNLRTRBMVRJNCN-UHFFFAOYSA-N.pdb
REMARK                            x       y       z     vdW  Elec       q    Type
REMARK                         _______ _______ _______ _____ _____    ______ ____
ROOT
ATOM      1  C   LIG    1        0.914  -0.438  -0.524  0.00  0.00    +0.012 C 
ENDROOT
BRANCH   1   2
ATOM      2  C   LIG    1        1.397   0.631   0.417  0.00  0.00    +0.120 C 
BRANCH   2   3
ATOM      3  C   LIG    1        2.824   0.347   0.719  0.00  0.00    +0.305 C 
ATOM      4  O   LIG    1        3.059  -0.559   1.558  0.00  0.00    -0.251 OA
BRANCH   3   5
ATOM      5  O   LIG    1        3.893   0.994   0.154  0.00  0.00    -0.481 OA
ATOM      6  H   LIG    1        3.867   1.640  -0.607  0.00  0.00    +0.295 HD
ENDBRANCH   3   5
ENDBRANCH   2   3
ENDBRANCH   1   2
BRANCH   1   7
ATOM      7  C   LIG    1       -0.513  -0.295  -0.927  0.00  0.00    +0.012 C 
BRANCH   7   8
ATOM      8  C   LIG    1       -1.488  -0.337   0.200  0.00  0.00    +0.120 C 
BRANCH   8   9
ATOM      9  C   LIG    1       -2.859  -0.184  -0.348  0.00  0.00    +0.305 C 
ATOM     10  O   LIG    1       -3.052  -0.048  -1.582  0.00  0.00    -0.251 OA
BRANCH   9  11
ATOM     11  O   LIG    1       -3.967  -0.188   0.486  0.00  0.00    -0.481 OA
ATOM     12  H   LIG    1       -4.816  -0.676   0.206  0.00  0.00    +0.295 HD
ENDBRANCH   9  11
ENDBRANCH   8   9
ENDBRANCH   7   8
ENDBRANCH   1   7
TORSDOF 7
