REMARK  Name = molecules/WNROFYMDJYEPJX-UHFFFAOYSA-K.pdb
REMARK                            x       y       z     vdW  Elec       q    Type
REMARK                         _______ _______ _______ _____ _____    ______ ____
ROOT
ATOM      1 AL   LIG    1        0.189   0.050  -0.333  0.00  0.00    +0.910 Al
ENDROOT
BRANCH   1   2
ATOM      2  O   LIG    1        1.679   0.120   0.735  0.00  0.00    -0.472 OA
ATOM      3  H   LIG    1        2.456  -0.041   0.143  0.00  0.00    +0.169 HD
ENDBRANCH   1   2
BRANCH   1   4
ATOM      4  O   LIG    1       -0.825   1.594  -0.449  0.00  0.00    -0.472 OA
ATOM      5  H   LIG    1       -1.533   1.488   0.252  0.00  0.00    +0.169 HD
ENDBRANCH   1   4
BRANCH   1   6
ATOM      6  O   LIG    1       -0.663  -1.549  -0.554  0.00  0.00    -0.472 OA
ATOM      7  H   LIG    1       -1.303  -1.660   0.206  0.00  0.00    +0.169 HD
ENDBRANCH   1   6
TORSDOF 3
