REMARK  Name = molecules/WOIGZSBYKGQJGL-UHFFFAOYSA-N.pdb
REMARK                            x       y       z     vdW  Elec       q    Type
REMARK                         _______ _______ _______ _____ _____    ______ ____
ROOT
ATOM      1  C   LIG    1       -0.165   0.233  -0.011  0.00  0.00    +0.152 C 
ATOM      2  C   LIG    1       -0.681   0.579   1.362  0.00  0.00    +0.240 C 
ATOM      3  O   LIG    1       -0.028   0.374   2.417  0.00  0.00    -0.274 OA
ATOM      4  N   LIG    1       -1.961   1.171   1.568  0.00  0.00    -0.239 N 
ATOM      5  H   LIG    1       -2.416   1.155   2.504  0.00  0.00    +0.159 HD
ATOM      6  C   LIG    1       -2.634   1.791   0.501  0.00  0.00    +0.312 C 
ATOM      7  O   LIG    1       -3.755   2.323   0.640  0.00  0.00    -0.252 OA
ATOM      8  N   LIG    1       -1.978   1.786  -0.752  0.00  0.00    -0.239 N 
ATOM      9  H   LIG    1       -2.490   2.255  -1.549  0.00  0.00    +0.159 HD
ATOM     10  C   LIG    1       -0.681   1.184  -0.973  0.00  0.00    +0.240 C 
ATOM     11  O   LIG    1       -0.139   1.591  -2.042  0.00  0.00    -0.274 OA
ENDROOT
BRANCH   1  12
ATOM     12  C   LIG    1        1.300   0.052   0.052  0.00  0.00    -0.023 A 
ATOM     13  C   LIG    1        1.774  -0.814   1.026  0.00  0.00    +0.005 A 
ATOM     14  C   LIG    1        3.130  -1.067   1.218  0.00  0.00    +0.000 A 
ATOM     15  C   LIG    1        4.001  -0.404   0.381  0.00  0.00    +0.000 A 
ATOM     16  C   LIG    1        3.543   0.454  -0.585  0.00  0.00    +0.000 A 
ATOM     17  C   LIG    1        2.177   0.699  -0.767  0.00  0.00    +0.005 A 
ENDBRANCH   1  12
BRANCH   1  18
ATOM     18  C   LIG    1       -0.674  -1.198  -0.357  0.00  0.00    +0.057 C 
BRANCH  18  19
ATOM     19  C   LIG    1       -2.131  -1.285  -0.359  0.00  0.00    -0.033 C 
ATOM     20  C   LIG    1       -2.765  -1.621  -1.463  0.00  0.00    +0.004 C 
ENDBRANCH  18  19
ENDBRANCH   1  18
TORSDOF 3
