REMARK  Name = molecules/WOSKHXYHFSIKNG-UHFFFAOYSA-N.pdb
REMARK                            x       y       z     vdW  Elec       q    Type
REMARK                         _______ _______ _______ _____ _____    ______ ____
ROOT
ATOM      1  C   LIG    1       -3.887   2.534   0.058  0.00  0.00    +0.074 A 
ATOM      2  C   LIG    1       -3.858   1.583   1.050  0.00  0.00    +0.134 A 
ATOM      3  C   LIG    1       -3.292   0.368   0.748  0.00  0.00    +0.079 A 
ATOM      4  C   LIG    1       -2.781   0.144  -0.515  0.00  0.00    +0.030 A 
ATOM      5  C   LIG    1       -2.817   1.109  -1.498  0.00  0.00    +0.044 A 
ATOM      6  C   LIG    1       -2.330   0.923  -2.768  0.00  0.00    +0.139 A 
ATOM      7  C   LIG    1       -2.421   1.953  -3.712  0.00  0.00    +0.066 A 
ATOM      8  C   LIG    1       -2.991   3.164  -3.399  0.00  0.00    +0.115 A 
ATOM      9  N   LIG    1       -3.461   3.330  -2.152  0.00  0.00    -0.255 NA
ATOM     10  C   LIG    1       -3.390   2.358  -1.216  0.00  0.00    +0.078 A 
ENDROOT
BRANCH   3  11
ATOM     11  C   LIG    1       -3.241  -0.665   1.767  0.00  0.00    +0.245 C 
ATOM     12  O   LIG    1       -3.722  -0.443   2.913  0.00  0.00    -0.270 OA
ATOM     13  N   LIG    1       -2.639  -1.940   1.459  0.00  0.00    -0.325 N 
ATOM     14  H   LIG    1       -2.002  -2.436   2.099  0.00  0.00    +0.145 HD
ATOM     15  H   LIG    1       -2.876  -2.362   0.537  0.00  0.00    +0.145 HD
ENDBRANCH   3  11
BRANCH   2  16
ATOM     16  O   LIG    1       -4.388   1.844   2.329  0.00  0.00    -0.494 OA
ATOM     17  C   LIG    1       -4.952   3.125   2.554  0.00  0.00    +0.277 C 
ENDBRANCH   2  16
BRANCH   6  18
ATOM     18  O   LIG    1       -1.753  -0.290  -3.098  0.00  0.00    -0.455 OA
BRANCH  18  19
ATOM     19  C   LIG    1       -0.579  -0.656  -2.442  0.00  0.00    +0.130 A 
ATOM     20  C   LIG    1        0.112   0.200  -1.605  0.00  0.00    +0.048 A 
ATOM     21  C   LIG    1        1.287  -0.223  -0.971  0.00  0.00    +0.028 A 
ATOM     22  C   LIG    1        1.793  -1.474  -1.146  0.00  0.00    +0.053 A 
ATOM     23  C   LIG    1        1.090  -2.342  -1.996  0.00  0.00    +0.066 A 
ATOM     24 CL   LIG    1        1.719  -3.959  -2.245  0.00  0.00    -0.082 Cl
ATOM     25  C   LIG    1       -0.052  -1.915  -2.606  0.00  0.00    +0.068 A 
BRANCH  22  26
ATOM     26  N   LIG    1        2.969  -1.942  -0.526  0.00  0.00    -0.268 N 
ATOM     27  C   LIG    1        3.778  -1.200   0.344  0.00  0.00    +0.304 C 
ATOM     28  N   LIG    1        4.958  -1.820   0.904  0.00  0.00    -0.296 N 
ATOM     29  H   LIG    1        5.185  -2.812   0.649  0.00  0.00    +0.151 HD
ATOM     30  O   LIG    1        3.591  -0.019   0.705  0.00  0.00    -0.253 OA
ATOM     31  H   LIG    1        3.293  -2.934  -0.716  0.00  0.00    +0.156 HD
BRANCH  28  32
ATOM     32  C   LIG    1        5.807  -1.101   1.792  0.00  0.00    +0.075 C 
ATOM     33  C   LIG    1        6.415  -1.797   2.961  0.00  0.00    +0.024 C 
ATOM     34  C   LIG    1        7.290  -1.334   1.785  0.00  0.00    +0.024 C 
ENDBRANCH  28  32
ENDBRANCH  22  26
ENDBRANCH  18  19
ENDBRANCH   6  18
TORSDOF 6
