REMARK  Name = molecules/WOUOLAUOZXOLJQ-MBSDFSHPSA-N.pdb
REMARK                            x       y       z     vdW  Elec       q    Type
REMARK                         _______ _______ _______ _____ _____    ______ ____
ROOT
ATOM      1  C   LIG    1       -0.035   1.573  -0.501  0.00  0.00    +0.138 C 
ATOM      2  C   LIG    1        0.509   0.994  -1.782  0.00  0.00    +0.034 C 
ENDROOT
BRANCH   1   4
ATOM      3  N   LIG    1       -2.521   1.623  -1.002  0.00  0.00    -0.286 N 
ATOM      4  C   LIG    1       -1.404   1.091  -0.316  0.00  0.00    +0.233 C 
ATOM      5  O   LIG    1       -1.616   0.160   0.496  0.00  0.00    -0.274 OA
BRANCH   3   6
ATOM      6  C   LIG    1       -3.869   1.112  -0.745  0.00  0.00    +0.085 C 
ATOM      7  C   LIG    1       -4.271   1.174   0.681  0.00  0.00    +0.058 C 
ATOM      8  C   LIG    1       -5.089  -0.055   0.873  0.00  0.00    -0.042 A 
ATOM      9  C   LIG    1       -5.912  -0.383   1.937  0.00  0.00    +0.004 A 
ATOM     10  C   LIG    1       -6.582  -1.593   1.897  0.00  0.00    +0.000 A 
ATOM     11  C   LIG    1       -6.451  -2.479   0.827  0.00  0.00    +0.000 A 
ATOM     12  C   LIG    1       -5.620  -2.115  -0.214  0.00  0.00    +0.004 A 
ATOM     13  C   LIG    1       -4.954  -0.917  -0.179  0.00  0.00    -0.042 A 
ATOM     14  C   LIG    1       -4.003  -0.330  -1.182  0.00  0.00    +0.058 C 
ENDBRANCH   3   6
BRANCH   3  15
ATOM     15  C   LIG    1       -2.448   2.679  -1.988  0.00  0.00    +0.228 C 
BRANCH  15  16
ATOM     16  C   LIG    1       -2.356   2.208  -3.376  0.00  0.00    +0.322 C 
ATOM     17  O   LIG    1       -2.201   3.020  -4.350  0.00  0.00    -0.249 OA
BRANCH  16  18
ATOM     18  O   LIG    1       -2.428   0.877  -3.728  0.00  0.00    -0.480 OA
ATOM     19  H   LIG    1       -1.746   0.205  -3.447  0.00  0.00    +0.295 HD
ENDBRANCH  16  18
ENDBRANCH  15  16
ENDBRANCH   3  15
ENDBRANCH   1   4
BRANCH   1  20
ATOM     20  N   LIG    1        0.830   1.371   0.578  0.00  0.00    -0.294 NA
ATOM     21  H   LIG    1        1.316   2.235   0.932  0.00  0.00    +0.123 HD
BRANCH  20  22
ATOM     22  C   LIG    1        1.235   0.168   1.108  0.00  0.00    +0.164 C 
BRANCH  22  23
ATOM     23  C   LIG    1        1.988   0.478   2.392  0.00  0.00    +0.324 C 
ATOM     24  O   LIG    1        1.702   1.583   2.971  0.00  0.00    -0.249 OA
BRANCH  23  25
ATOM     25  O   LIG    1        2.930  -0.321   2.956  0.00  0.00    -0.464 OA
BRANCH  25  26
ATOM     26  C   LIG    1        3.615  -0.007   4.164  0.00  0.00    +0.229 C 
ATOM     27  C   LIG    1        4.317   1.321   4.007  0.00  0.00    +0.048 C 
ENDBRANCH  25  26
ENDBRANCH  23  25
ENDBRANCH  22  23
BRANCH  22  28
ATOM     28  C   LIG    1        2.127  -0.740   0.321  0.00  0.00    +0.035 C 
BRANCH  28  29
ATOM     29  C   LIG    1        3.474  -0.169  -0.015  0.00  0.00    +0.037 C 
BRANCH  29  30
ATOM     30  C   LIG    1        4.269  -1.158  -0.829  0.00  0.00    -0.047 A 
ATOM     31  C   LIG    1        5.116  -2.051  -0.223  0.00  0.00    +0.003 A 
ATOM     32  C   LIG    1        5.827  -2.942  -0.985  0.00  0.00    +0.000 A 
ATOM     33  C   LIG    1        5.727  -2.982  -2.350  0.00  0.00    +0.000 A 
ATOM     34  C   LIG    1        4.875  -2.081  -2.936  0.00  0.00    +0.000 A 
ATOM     35  C   LIG    1        4.142  -1.167  -2.196  0.00  0.00    +0.003 A 
ENDBRANCH  29  30
ENDBRANCH  28  29
ENDBRANCH  22  28
ENDBRANCH  20  22
ENDBRANCH   1  20
TORSDOF 13
