REMARK  Name = molecules/WOZSCQDILHKSGG-UHFFFAOYSA-N.pdb
REMARK                            x       y       z     vdW  Elec       q    Type
REMARK                         _______ _______ _______ _____ _____    ______ ____
ROOT
ATOM      1  P   LIG    1       -0.398   0.726  -0.304  0.00  0.00    +0.363 P 
ATOM      2  O   LIG    1       -0.660   0.739  -1.791  0.00  0.00    -0.256 OA
ENDROOT
BRANCH   1   3
ATOM      3  C   LIG    1        1.351   0.252  -0.066  0.00  0.00    +0.286 C 
BRANCH   3   4
ATOM      4  O   LIG    1        1.693  -0.582  -1.107  0.00  0.00    -0.366 OA
BRANCH   4   5
ATOM      5  C   LIG    1        2.987  -0.975  -1.036  0.00  0.00    +0.182 C 
BRANCH   5   6
ATOM      6  C   LIG    1        3.333  -1.756   0.199  0.00  0.00    +0.153 C 
BRANCH   6   7
ATOM      7  N   LIG    1        4.752  -2.123   0.125  0.00  0.00    -0.313 N 
ATOM      8  C   LIG    1        5.825  -1.451   0.573  0.00  0.00    +0.201 A 
ATOM      9  N   LIG    1        6.941  -2.141   0.303  0.00  0.00    -0.231 NA
ATOM     10  C   LIG    1        6.534  -3.256  -0.322  0.00  0.00    +0.147 A 
ATOM     11  C   LIG    1        7.263  -4.317  -0.822  0.00  0.00    +0.147 A 
ATOM     12  N   LIG    1        6.593  -5.321  -1.411  0.00  0.00    -0.219 NA
ATOM     13  C   LIG    1        5.255  -5.334  -1.532  0.00  0.00    +0.225 A 
ATOM     14  N   LIG    1        4.554  -4.298  -1.043  0.00  0.00    -0.216 NA
ATOM     15  C   LIG    1        5.169  -3.268  -0.445  0.00  0.00    +0.165 A 
BRANCH  11  16
ATOM     16  N   LIG    1        8.682  -4.374  -0.731  0.00  0.00    -0.341 N 
ATOM     17  H   LIG    1        9.096  -5.232  -0.299  0.00  0.00    +0.144 HD
ATOM     18  H   LIG    1        9.299  -3.623  -1.064  0.00  0.00    +0.144 HD
ENDBRANCH  11  16
ENDBRANCH   6   7
ENDBRANCH   5   6
ENDBRANCH   4   5
ENDBRANCH   3   4
ENDBRANCH   1   3
BRANCH   1  19
ATOM     19  O   LIG    1       -1.342  -0.425   0.499  0.00  0.00    -0.268 OA
BRANCH  19  20
ATOM     20  C   LIG    1       -2.320  -0.856  -0.362  0.00  0.00    +0.407 C 
BRANCH  20  21
ATOM     21  O   LIG    1       -3.174  -1.828   0.207  0.00  0.00    -0.437 OA
BRANCH  21  22
ATOM     22  C   LIG    1       -4.200  -2.333  -0.579  0.00  0.00    +0.314 C 
ATOM     23  O   LIG    1       -4.333  -1.913  -1.757  0.00  0.00    -0.250 OA
BRANCH  22  24
ATOM     24  C   LIG    1       -5.146  -3.367  -0.042  0.00  0.00    +0.059 C 
ATOM     25  C   LIG    1       -5.845  -2.807   1.181  0.00  0.00    +0.022 C 
ATOM     26  C   LIG    1       -4.436  -4.621   0.375  0.00  0.00    +0.022 C 
ATOM     27  C   LIG    1       -6.179  -3.686  -1.072  0.00  0.00    +0.022 C 
ENDBRANCH  22  24
ENDBRANCH  21  22
ENDBRANCH  20  21
ENDBRANCH  19  20
ENDBRANCH   1  19
BRANCH   1  28
ATOM     28  O   LIG    1       -0.678   2.288   0.268  0.00  0.00    -0.268 OA
BRANCH  28  29
ATOM     29  C   LIG    1       -1.701   2.893  -0.456  0.00  0.00    +0.407 C 
BRANCH  29  30
ATOM     30  O   LIG    1       -1.881   4.200   0.079  0.00  0.00    -0.437 OA
BRANCH  30  31
ATOM     31  C   LIG    1       -0.795   5.075   0.039  0.00  0.00    +0.314 C 
ATOM     32  O   LIG    1        0.297   4.692  -0.462  0.00  0.00    -0.250 OA
BRANCH  31  33
ATOM     33  C   LIG    1       -0.986   6.433   0.596  0.00  0.00    +0.059 C 
ATOM     34  C   LIG    1       -1.359   6.368   2.053  0.00  0.00    +0.022 C 
ATOM     35  C   LIG    1        0.267   7.237   0.346  0.00  0.00    +0.022 C 
ATOM     36  C   LIG    1       -2.120   7.075  -0.199  0.00  0.00    +0.022 C 
ENDBRANCH  31  33
ENDBRANCH  30  31
ENDBRANCH  29  30
ENDBRANCH  28  29
ENDBRANCH   1  28
TORSDOF 16
