REMARK  Name = molecules/WPYMKLBDIGXBTP-UHFFFAOYSA-N.pdb
REMARK                            x       y       z     vdW  Elec       q    Type
REMARK                         _______ _______ _______ _____ _____    ______ ____
ROOT
ATOM      1  C   LIG    1        0.613   0.206   0.079  0.00  0.00    +0.059 A 
ATOM      2  C   LIG    1       -0.288   1.160   0.487  0.00  0.00    +0.015 A 
ATOM      3  C   LIG    1       -1.651   0.992   0.323  0.00  0.00    +0.001 A 
ATOM      4  C   LIG    1       -2.161  -0.150  -0.262  0.00  0.00    +0.000 A 
ATOM      5  C   LIG    1       -1.274  -1.118  -0.677  0.00  0.00    +0.001 A 
ATOM      6  C   LIG    1        0.074  -0.936  -0.507  0.00  0.00    +0.015 A 
ENDROOT
BRANCH   1   7
ATOM      7  C   LIG    1        2.048   0.345   0.234  0.00  0.00    +0.337 C 
ATOM      8  O   LIG    1        2.487   1.388   0.766  0.00  0.00    -0.245 OA
BRANCH   7   9
ATOM      9  O   LIG    1        2.949  -0.615  -0.176  0.00  0.00    -0.477 OA
ATOM     10  H   LIG    1        3.562  -1.117   0.481  0.00  0.00    +0.295 HD
ENDBRANCH   7   9
ENDBRANCH   1   7
TORSDOF 2
