REMARK  Name = molecules/WQABCVAJNWAXTE-VKHMYHEASA-N.pdb
REMARK                            x       y       z     vdW  Elec       q    Type
REMARK                         _______ _______ _______ _____ _____    ______ ____
ROOT
ATOM      1  C   LIG    1        0.041   0.190   0.240  0.00  0.00    +0.078 C 
ENDROOT
BRANCH   1   2
ATOM      2  S   LIG    1        0.475   1.913   0.610  0.00  0.00    -0.172 S 
ATOM      3  H   LIG    1       -0.412   2.378   1.611  0.00  0.00    +0.102 HD
ENDBRANCH   1   2
BRANCH   1   4
ATOM      4  C   LIG    1       -1.381   0.155  -0.211  0.00  0.00    +0.170 C 
BRANCH   4   5
ATOM      5  O   LIG    1       -1.829  -1.124  -0.525  0.00  0.00    -0.394 OA
ATOM      6  H   LIG    1       -1.642  -1.719   0.244  0.00  0.00    +0.209 HD
ENDBRANCH   4   5
ENDBRANCH   1   4
BRANCH   1   7
ATOM      7  C   LIG    1        1.000  -0.363  -0.793  0.00  0.00    +0.081 C 
BRANCH   7   8
ATOM      8  S   LIG    1        2.703  -0.286  -0.173  0.00  0.00    -0.177 S 
ATOM      9  H   LIG    1        2.829  -1.014   1.036  0.00  0.00    +0.102 HD
ENDBRANCH   7   8
ENDBRANCH   1   7
TORSDOF 5
