REMARK  Name = molecules/WQDZHQZKJMNOAY-KRWDZBQOSA-N.pdb
REMARK                            x       y       z     vdW  Elec       q    Type
REMARK                         _______ _______ _______ _____ _____    ______ ____
ROOT
ATOM      1  C   LIG    1       -1.017  -0.982  -0.491  0.00  0.00    +0.097 C 
ENDROOT
BRANCH   1   2
ATOM      2  C   LIG    1       -1.973  -2.095  -0.224  0.00  0.00    -0.030 A 
ATOM      3  C   LIG    1       -1.883  -2.936   0.859  0.00  0.00    +0.005 A 
ATOM      4  C   LIG    1       -2.761  -3.953   1.143  0.00  0.00    +0.000 A 
ATOM      5  C   LIG    1       -3.822  -4.170   0.298  0.00  0.00    +0.000 A 
ATOM      6  C   LIG    1       -3.965  -3.363  -0.803  0.00  0.00    +0.000 A 
ATOM      7  C   LIG    1       -3.051  -2.334  -1.067  0.00  0.00    +0.005 A 
ENDBRANCH   1   2
BRANCH   1   8
ATOM      8  N   LIG    1       -1.555   0.312  -0.328  0.00  0.00    -0.295 NA
ATOM      9  C   LIG    1       -2.062   0.643   0.975  0.00  0.00    +0.085 C 
ATOM     10  C   LIG    1       -1.870   2.100   1.316  0.00  0.00    +0.015 C 
ATOM     11  C   LIG    1       -1.631   2.860   0.033  0.00  0.00    +0.002 C 
ATOM     12  C   LIG    1       -2.606   2.356  -0.997  0.00  0.00    +0.015 C 
ATOM     13  C   LIG    1       -2.373   0.875  -1.338  0.00  0.00    +0.085 C 
ENDBRANCH   1   8
BRANCH   1  14
ATOM     14  C   LIG    1        0.212  -1.229   0.362  0.00  0.00    +0.144 C 
BRANCH  14  15
ATOM     15  C   LIG    1        1.256  -0.201   0.138  0.00  0.00    +0.309 C 
ATOM     16  O   LIG    1        1.131   0.717  -0.693  0.00  0.00    -0.251 OA
BRANCH  15  17
ATOM     17  O   LIG    1        2.412  -0.273   0.887  0.00  0.00    -0.465 OA
BRANCH  17  18
ATOM     18  C   LIG    1        3.476   0.653   0.759  0.00  0.00    +0.232 C 
BRANCH  18  19
ATOM     19  C   LIG    1        4.051   0.659  -0.621  0.00  0.00    +0.041 C 
BRANCH  19  20
ATOM     20  C   LIG    1        5.171   1.664  -0.715  0.00  0.00    -0.000 C 
ATOM     21  C   LIG    1        6.311   1.383   0.236  0.00  0.00    +0.004 C 
ENDBRANCH  19  20
ENDBRANCH  18  19
ENDBRANCH  17  18
ENDBRANCH  15  17
ENDBRANCH  14  15
ENDBRANCH   1  14
TORSDOF 8
