REMARK  Name = molecules/WQYRHRAZNNRDIA-UHFFFAOYSA-N.pdb
REMARK                            x       y       z     vdW  Elec       q    Type
REMARK                         _______ _______ _______ _____ _____    ______ ____
ROOT
ATOM      1  C   LIG    1        0.700   0.357   0.754  0.00  0.00    +0.007 A 
ATOM      2  C   LIG    1        0.882  -0.659   1.690  0.00  0.00    +0.014 A 
ATOM      3  C   LIG    1        1.985  -1.452   1.655  0.00  0.00    +0.050 A 
ATOM      4  C   LIG    1        2.940  -1.272   0.705  0.00  0.00    +0.158 A 
ATOM      5  C   LIG    1        2.796  -0.278  -0.238  0.00  0.00    +0.162 A 
ATOM      6  C   LIG    1        1.684   0.531  -0.214  0.00  0.00    +0.059 A 
ENDROOT
BRANCH   1   7
ATOM      7  C   LIG    1       -0.471   1.204   0.783  0.00  0.00    +0.082 C 
ATOM      8  S   LIG    1       -0.339   2.736   1.297  0.00  0.00    -0.035 S 
BRANCH   7   9
ATOM      9  N   LIG    1       -1.731   0.717   0.370  0.00  0.00    -0.319 N 
ATOM     10  C   LIG    1       -2.929   1.552   0.390  0.00  0.00    +0.133 C 
ATOM     11  C   LIG    1       -4.045   0.724  -0.205  0.00  0.00    +0.178 C 
ATOM     12  O   LIG    1       -4.213  -0.387   0.625  0.00  0.00    -0.377 OA
ATOM     13  C   LIG    1       -3.155  -1.277   0.501  0.00  0.00    +0.178 C 
ATOM     14  C   LIG    1       -1.924  -0.648  -0.104  0.00  0.00    +0.133 C 
ENDBRANCH   7   9
ENDBRANCH   1   7
BRANCH   4  15
ATOM     15  O   LIG    1        4.048  -2.121   0.726  0.00  0.00    -0.503 OA
ATOM     16  H   LIG    1        4.777  -1.994   0.011  0.00  0.00    +0.292 HD
ENDBRANCH   4  15
BRANCH   5  17
ATOM     17  O   LIG    1        3.807  -0.151  -1.177  0.00  0.00    -0.491 OA
ATOM     18  C   LIG    1        3.835   0.792  -2.204  0.00  0.00    +0.277 C 
ENDBRANCH   5  17
TORSDOF 4
