REMARK  Name = molecules/WQZGKKKJIJFFOK-PHYPRBDBSA-N.pdb
REMARK                            x       y       z     vdW  Elec       q    Type
REMARK                         _______ _______ _______ _____ _____    ______ ____
ROOT
ATOM      1  C   LIG    1        1.114   0.287   0.720  0.00  0.00    +0.178 C 
ATOM      2  O   LIG    1        0.153   1.261   0.861  0.00  0.00    -0.341 OA
ATOM      3  C   LIG    1       -0.924   1.127   0.005  0.00  0.00    +0.279 C 
ATOM      4  C   LIG    1       -1.670  -0.182   0.241  0.00  0.00    +0.201 C 
ATOM      5  C   LIG    1       -0.709  -1.328   0.414  0.00  0.00    +0.179 C 
ATOM      6  C   LIG    1        0.684  -0.932  -0.002  0.00  0.00    +0.177 C 
ENDROOT
BRANCH   3   7
ATOM      7  O   LIG    1       -1.830   2.148   0.316  0.00  0.00    -0.365 OA
ATOM      8  H   LIG    1       -1.617   2.998  -0.128  0.00  0.00    +0.213 HD
ENDBRANCH   3   7
BRANCH   4   9
ATOM      9  O   LIG    1       -2.505  -0.083   1.360  0.00  0.00    -0.384 OA
ATOM     10  H   LIG    1       -3.009   0.786   1.279  0.00  0.00    +0.210 HD
ENDBRANCH   4   9
BRANCH   5  11
ATOM     11  O   LIG    1       -1.171  -2.462  -0.235  0.00  0.00    -0.386 OA
ATOM     12  H   LIG    1       -2.175  -2.452  -0.123  0.00  0.00    +0.210 HD
ENDBRANCH   5  11
BRANCH   6  13
ATOM     13  O   LIG    1        0.842  -0.787  -1.358  0.00  0.00    -0.386 OA
ATOM     14  H   LIG    1        0.065  -0.996  -1.903  0.00  0.00    +0.210 HD
ENDBRANCH   6  13
BRANCH   1  15
ATOM     15  C   LIG    1        2.314   0.889   0.026  0.00  0.00    +0.190 C 
BRANCH  15  16
ATOM     16  O   LIG    1        3.342  -0.021  -0.162  0.00  0.00    -0.392 OA
ATOM     17  H   LIG    1        3.175  -0.872   0.275  0.00  0.00    +0.210 HD
ENDBRANCH  15  16
ENDBRANCH   1  15
TORSDOF 6
