REMARK  Name = molecules/WRCHFMBCVFFYEQ-KRWDZBQOSA-N.pdb
REMARK                            x       y       z     vdW  Elec       q    Type
REMARK                         _______ _______ _______ _____ _____    ______ ____
ROOT
ATOM      1  C   LIG    1       -0.346  -0.057  -0.675  0.00  0.00    +0.118 C 
ENDROOT
BRANCH   1   2
ATOM      2  C   LIG    1       -0.891  -1.168   0.129  0.00  0.00    +0.007 A 
ATOM      3  C   LIG    1       -1.333  -0.985   1.414  0.00  0.00    +0.047 A 
ATOM      4  C   LIG    1       -1.847  -2.042   2.176  0.00  0.00    +0.020 A 
ATOM      5  C   LIG    1       -1.924  -3.304   1.649  0.00  0.00    +0.001 A 
ATOM      6  C   LIG    1       -1.486  -3.514   0.355  0.00  0.00    +0.000 A 
ATOM      7 CL   LIG    1       -1.282   0.596   2.155  0.00  0.00    -0.083 Cl
ATOM      8  C   LIG    1       -0.989  -2.470  -0.367  0.00  0.00    +0.008 A 
ENDBRANCH   1   2
BRANCH   1   9
ATOM      9  C   LIG    1       -1.352   1.033  -0.843  0.00  0.00    -0.012 A 
ATOM     10  C   LIG    1       -1.054   2.329  -0.500  0.00  0.00    +0.007 A 
ATOM     11  C   LIG    1       -2.025   3.286  -0.683  0.00  0.00    +0.000 A 
ATOM     12  C   LIG    1       -3.264   2.954  -1.195  0.00  0.00    +0.000 A 
ATOM     13  C   LIG    1       -3.571   1.654  -1.541  0.00  0.00    +0.000 A 
ATOM     14  C   LIG    1       -2.584   0.687  -1.355  0.00  0.00    +0.007 A 
ENDBRANCH   1   9
BRANCH   1  15
ATOM     15  O   LIG    1       -0.184  -0.575  -1.989  0.00  0.00    -0.379 OA
ATOM     16  H   LIG    1        0.657  -0.210  -2.318  0.00  0.00    +0.211 HD
ENDBRANCH   1  15
BRANCH   1  17
ATOM     17  C   LIG    1        0.968   0.479  -0.173  0.00  0.00    +0.060 C 
BRANCH  17  18
ATOM     18  C   LIG    1        2.037  -0.583  -0.133  0.00  0.00    +0.087 C 
BRANCH  18  19
ATOM     19  N   LIG    1        3.292  -0.132   0.329  0.00  0.00    -0.308 NA
ATOM     20  C   LIG    1        3.501  -0.041   1.727  0.00  0.00    +0.104 C 
ATOM     21  C   LIG    1        4.022   0.777  -0.466  0.00  0.00    +0.104 C 
ENDBRANCH  18  19
ENDBRANCH  17  18
ENDBRANCH   1  17
TORSDOF 6
