REMARK  Name = molecules/WRCITXQNXAIKLR-UHFFFAOYSA-N.pdb
REMARK                            x       y       z     vdW  Elec       q    Type
REMARK                         _______ _______ _______ _____ _____    ______ ____
ROOT
ATOM      1  C   LIG    1        0.152   0.182  -2.584  0.00  0.00    +0.000 C 
ENDROOT
BRANCH   1   2
ATOM      2  C   LIG    1       -1.040  -0.686  -2.702  0.00  0.00    +0.000 C 
BRANCH   2   3
ATOM      3  C   LIG    1       -1.661  -0.978  -1.370  0.00  0.00    +0.000 C 
BRANCH   3   4
ATOM      4  C   LIG    1       -2.096   0.295  -0.717  0.00  0.00    +0.001 C 
BRANCH   4   5
ATOM      5  C   LIG    1       -2.733   0.028   0.605  0.00  0.00    +0.011 C 
BRANCH   5   6
ATOM      6  C   LIG    1       -3.962  -0.825   0.429  0.00  0.00    +0.069 C 
BRANCH   6   7
ATOM      7  S   LIG    1       -4.663  -1.031   2.109  0.00  0.00    -0.158 S 
BRANCH   7   8
ATOM      8  C   LIG    1       -5.206   0.577   2.709  0.00  0.00    +0.097 C 
BRANCH   8   9
ATOM      9  C   LIG    1       -6.379   1.053   1.921  0.00  0.00    +0.166 C 
BRANCH   9  10
ATOM     10  O   LIG    1       -6.058   1.193   0.602  0.00  0.00    -0.394 OA
ATOM     11  H   LIG    1       -6.858   1.350   0.043  0.00  0.00    +0.209 HD
ENDBRANCH   9  10
ENDBRANCH   8   9
ENDBRANCH   7   8
ENDBRANCH   6   7
ENDBRANCH   5   6
ENDBRANCH   4   5
ENDBRANCH   3   4
ENDBRANCH   2   3
ENDBRANCH   1   2
BRANCH   1  12
ATOM     12  C   LIG    1        1.226  -0.460  -1.732  0.00  0.00    +0.000 C 
BRANCH  12  13
ATOM     13  C   LIG    1        2.399   0.503  -1.658  0.00  0.00    +0.001 C 
BRANCH  13  14
ATOM     14  C   LIG    1        3.543  -0.096  -0.821  0.00  0.00    +0.011 C 
BRANCH  14  15
ATOM     15  C   LIG    1        4.620   0.957  -0.809  0.00  0.00    +0.069 C 
BRANCH  15  16
ATOM     16  S   LIG    1        6.104   0.541   0.069  0.00  0.00    -0.158 S 
BRANCH  16  17
ATOM     17  C   LIG    1        5.979   0.358   1.829  0.00  0.00    +0.097 C 
BRANCH  17  18
ATOM     18  C   LIG    1        5.202  -0.824   2.320  0.00  0.00    +0.166 C 
BRANCH  18  19
ATOM     19  O   LIG    1        5.771  -2.014   1.845  0.00  0.00    -0.394 OA
ATOM     20  H   LIG    1        6.685  -1.792   1.532  0.00  0.00    +0.209 HD
ENDBRANCH  18  19
ENDBRANCH  17  18
ENDBRANCH  16  17
ENDBRANCH  15  16
ENDBRANCH  14  15
ENDBRANCH  13  14
ENDBRANCH  12  13
ENDBRANCH   1  12
TORSDOF 17
