REMARK  Name = molecules/WREGKURFCTUGRC-POYBYMJQSA-N.pdb
REMARK                            x       y       z     vdW  Elec       q    Type
REMARK                         _______ _______ _______ _____ _____    ______ ____
ROOT
ATOM      1  O   LIG    1       -0.517  -1.059  -1.616  0.00  0.00    -0.244 OA
ATOM      2  C   LIG    1       -1.452  -0.569  -0.910  0.00  0.00    +0.352 A 
ATOM      3  N   LIG    1       -1.046  -0.024   0.259  0.00  0.00    -0.273 N 
ATOM      4  C   LIG    1       -2.012   0.509   1.038  0.00  0.00    +0.096 A 
ATOM      5  C   LIG    1       -3.338   0.495   0.658  0.00  0.00    +0.061 A 
ATOM      6  C   LIG    1       -3.729  -0.071  -0.549  0.00  0.00    +0.123 A 
ATOM      7  N   LIG    1       -2.735  -0.596  -1.306  0.00  0.00    -0.178 NA
ENDROOT
BRANCH   3   8
ATOM      8  C   LIG    1        0.314  -0.006   0.658  0.00  0.00    +0.224 C 
ATOM      9  C   LIG    1        0.972  -1.328   0.834  0.00  0.00    +0.057 C 
ATOM     10  C   LIG    1        2.445  -0.981   0.566  0.00  0.00    +0.038 C 
ATOM     11  C   LIG    1        2.362   0.522   0.455  0.00  0.00    +0.146 C 
ATOM     12  O   LIG    1        1.155   0.675  -0.237  0.00  0.00    -0.351 OA
BRANCH  11  13
ATOM     13  C   LIG    1        3.525   1.117  -0.280  0.00  0.00    +0.187 C 
BRANCH  13  14
ATOM     14  O   LIG    1        3.718   0.550  -1.513  0.00  0.00    -0.392 OA
ATOM     15  H   LIG    1        4.522   0.968  -1.922  0.00  0.00    +0.210 HD
ENDBRANCH  13  14
ENDBRANCH  11  13
ENDBRANCH   3   8
BRANCH   6  16
ATOM     16  N   LIG    1       -5.082  -0.095  -0.958  0.00  0.00    -0.343 N 
ATOM     17  H   LIG    1       -5.712  -0.830  -0.615  0.00  0.00    +0.144 HD
ATOM     18  H   LIG    1       -5.426   0.629  -1.599  0.00  0.00    +0.144 HD
ENDBRANCH   6  16
TORSDOF 4
