REMARK  Name = molecules/WRJPSSPFHGNBMG-VIFPVBQESA-N.pdb
REMARK                            x       y       z     vdW  Elec       q    Type
REMARK                         _______ _______ _______ _____ _____    ______ ____
ROOT
ATOM      1  C   LIG    1        0.404  -0.487   0.387  0.00  0.00    +0.193 C 
ATOM      2  C   LIG    1       -0.415  -0.509   1.647  0.00  0.00    +0.129 C 
ATOM      3  N   LIG    1       -1.840  -0.323   1.386  0.00  0.00    -0.299 NA
ATOM      4  C   LIG    1       -2.002   1.088   1.028  0.00  0.00    +0.085 C 
ATOM      5  C   LIG    1       -1.042   1.423  -0.075  0.00  0.00    +0.022 C 
ATOM      6  C   LIG    1       -2.283  -1.161   0.285  0.00  0.00    +0.085 C 
ATOM      7  C   LIG    1       -1.599  -0.798  -1.006  0.00  0.00    +0.022 C 
ATOM      8  C   LIG    1       -0.477   0.153  -0.695  0.00  0.00    +0.033 C 
ENDROOT
BRANCH   1   9
ATOM      9  O   LIG    1        1.562   0.280   0.477  0.00  0.00    -0.460 OA
BRANCH   9  10
ATOM     10  C   LIG    1        2.789  -0.289   0.189  0.00  0.00    +0.304 C 
ATOM     11  C   LIG    1        4.066   0.464   0.263  0.00  0.00    +0.136 C 
ATOM     12  O   LIG    1        2.789  -1.499  -0.146  0.00  0.00    -0.251 OA
ENDBRANCH   9  10
ENDBRANCH   1   9
TORSDOF 2
