REMARK  Name = molecules/WRNXUQJJCIZICJ-XMMPIXPASA-N.pdb
REMARK                            x       y       z     vdW  Elec       q    Type
REMARK                         _______ _______ _______ _____ _____    ______ ____
ROOT
ATOM      1  C   LIG    1        0.327   0.214   0.332  0.00  0.00    +0.037 A 
ATOM      2  C   LIG    1        1.228   0.380   1.398  0.00  0.00    +0.015 A 
ATOM      3  C   LIG    1        2.576   0.124   1.262  0.00  0.00    +0.024 A 
ATOM      4  C   LIG    1        3.140  -0.308   0.093  0.00  0.00    +0.034 A 
ATOM      5  C   LIG    1        2.262  -0.481  -0.977  0.00  0.00    +0.024 A 
ATOM      6  C   LIG    1        0.895  -0.219  -0.833  0.00  0.00    +0.015 A 
ENDROOT
BRANCH   1   7
ATOM      7  C   LIG    1       -1.051   0.587   0.520  0.00  0.00    +0.251 C 
ATOM      8  O   LIG    1       -1.342   1.197   1.636  0.00  0.00    -0.270 OA
ATOM      9  N   LIG    1       -2.152   0.389  -0.348  0.00  0.00    -0.267 N 
ATOM     10  C   LIG    1       -3.236   1.338  -0.197  0.00  0.00    +0.041 A 
ATOM     11  C   LIG    1       -2.702   2.602   0.076  0.00  0.00    +0.024 A 
ATOM     12  C   LIG    1       -3.555   3.667   0.243  0.00  0.00    +0.002 A 
ATOM     13  C   LIG    1       -4.915   3.478   0.138  0.00  0.00    +0.000 A 
ATOM     14  C   LIG    1       -5.423   2.233  -0.132  0.00  0.00    +0.007 A 
ATOM     15  C   LIG    1       -4.587   1.126  -0.307  0.00  0.00    -0.009 A 
ATOM     16  C   LIG    1       -5.385  -0.086  -0.590  0.00  0.00    +0.088 C 
ATOM     17  C   LIG    1       -4.479  -1.278  -0.337  0.00  0.00    +0.025 C 
ATOM     18  C   LIG    1       -3.511  -1.387  -1.453  0.00  0.00    +0.021 C 
ATOM     19  C   LIG    1       -2.167  -0.729  -1.248  0.00  0.00    +0.114 C 
BRANCH  16  20
ATOM     20  N   LIG    1       -6.604  -0.073   0.129  0.00  0.00    -0.301 NA
ATOM     21  C   LIG    1       -6.476   0.057   1.566  0.00  0.00    +0.105 C 
ATOM     22  C   LIG    1       -7.481  -1.182  -0.224  0.00  0.00    +0.105 C 
ENDBRANCH  16  20
ENDBRANCH   1   7
BRANCH   4  23
ATOM     23  N   LIG    1        4.523  -0.560  -0.114  0.00  0.00    -0.281 N 
ATOM     24  C   LIG    1        5.426  -0.867   0.898  0.00  0.00    +0.249 C 
ATOM     25  O   LIG    1        5.038  -0.992   2.085  0.00  0.00    -0.270 OA
ATOM     26  H   LIG    1        4.895  -0.544  -1.125  0.00  0.00    +0.155 HD
BRANCH  24  27
ATOM     27  C   LIG    1        6.835  -1.051   0.613  0.00  0.00    +0.040 A 
ATOM     28  C   LIG    1        7.447  -2.210   1.028  0.00  0.00    +0.013 A 
ATOM     29  C   LIG    1        8.761  -2.441   0.718  0.00  0.00    +0.001 A 
ATOM     30  C   LIG    1        9.512  -1.530  -0.015  0.00  0.00    +0.000 A 
ATOM     31  C   LIG    1        8.868  -0.388  -0.409  0.00  0.00    +0.004 A 
ATOM     32  C   LIG    1        7.539  -0.137  -0.104  0.00  0.00    -0.038 A 
ATOM     33  C   LIG    1        6.990   1.181  -0.521  0.00  0.00    +0.044 C 
ENDBRANCH  24  27
ENDBRANCH   4  23
TORSDOF 4
