REMARK  Name = molecules/WRWBCPJQPDHXTJ-DTMQFJJTSA-N.pdb
REMARK                            x       y       z     vdW  Elec       q    Type
REMARK                         _______ _______ _______ _____ _____    ______ ____
ROOT
ATOM      1  C   LIG    1        2.262   1.062   0.510  0.00  0.00    +0.016 C 
ATOM      2  C   LIG    1        1.878  -0.315  -0.015  0.00  0.00    -0.008 C 
ATOM      3  C   LIG    1        2.606  -1.335   0.805  0.00  0.00    +0.014 C 
ATOM      4  C   LIG    1        3.186  -2.452  -0.041  0.00  0.00    +0.032 C 
ATOM      5  C   LIG    1        4.229  -1.836  -0.937  0.00  0.00    +0.119 C 
ATOM      6  C   LIG    1        3.545  -0.964  -1.942  0.00  0.00    +0.062 C 
ATOM      7  C   LIG    1        0.379  -0.501  -0.062  0.00  0.00    +0.003 C 
ATOM      8  C   LIG    1       -0.199  -1.028   1.195  0.00  0.00    +0.005 C 
ATOM      9  C   LIG    1       -1.728  -1.045   1.031  0.00  0.00    +0.010 C 
ATOM     10  C   LIG    1       -2.158   0.353   0.877  0.00  0.00    -0.000 C 
ATOM     11  C   LIG    1       -1.625   1.244   1.960  0.00  0.00    +0.014 C 
ATOM     12  C   LIG    1       -3.626   0.591   0.751  0.00  0.00    +0.069 C 
ATOM     13  C   LIG    1       -3.639   2.019   0.180  0.00  0.00    +0.035 C 
ATOM     14  C   LIG    1       -2.288   2.197  -0.511  0.00  0.00    +0.007 C 
ATOM     15  C   LIG    1       -4.323  -0.277  -0.238  0.00  0.00    +0.042 C 
ATOM     16  C   LIG    1       -1.696   0.828  -0.509  0.00  0.00    +0.001 C 
ATOM     17  C   LIG    1       -0.205   0.776  -0.569  0.00  0.00    +0.000 C 
ATOM     18  C   LIG    1        0.259   0.955  -1.999  0.00  0.00    +0.031 C 
ATOM     19  C   LIG    1        1.519   0.277  -2.319  0.00  0.00    -0.027 C 
ATOM     20  C   LIG    1        2.318  -0.332  -1.453  0.00  0.00    -0.065 C 
ENDROOT
BRANCH   5  21
ATOM     21  O   LIG    1        5.079  -1.077  -0.135  0.00  0.00    -0.391 OA
ATOM     22  H   LIG    1        6.030  -1.183  -0.389  0.00  0.00    +0.210 HD
ENDBRANCH   5  21
BRANCH  12  23
ATOM     23  O   LIG    1       -4.214   0.580   2.013  0.00  0.00    -0.388 OA
ATOM     24  H   LIG    1       -3.993  -0.289   2.425  0.00  0.00    +0.210 HD
ENDBRANCH  12  23
TORSDOF 2
