REMARK  Name = molecules/WRWRKDRWMURIBI-UHFFFAOYSA-M.pdb
REMARK                            x       y       z     vdW  Elec       q    Type
REMARK                         _______ _______ _______ _____ _____    ______ ____
ROOT
ATOM      1  N   LIG    1       -1.127  -0.011   0.281  0.00  0.00    +0.000 NA
ATOM      2  H   LIG    1       -1.468   0.866  -0.165  0.00  0.00    +0.000 HD
ATOM      3  H   LIG    1       -1.553  -0.836  -0.175  0.00  0.00    +0.000 HD
ENDROOT
BRANCH   1   4
ATOM      4 HG   LIG    1        0.899  -0.009   0.165  0.00  0.00    +0.000 Hg
ATOM      5 CL   LIG    1        3.249  -0.010  -0.106  0.00  0.00    +0.000 Cl
ENDBRANCH   1   4
TORSDOF 1
