REMARK  Name = molecules/WSEQXVZVJXJVFP-FQEVSTJZSA-N.pdb
REMARK                            x       y       z     vdW  Elec       q    Type
REMARK                         _______ _______ _______ _____ _____    ______ ____
ROOT
ATOM      1  C   LIG    1        0.620  -0.194   0.437  0.00  0.00    +0.120 C 
ATOM      2  O   LIG    1        0.092  -0.537   1.673  0.00  0.00    -0.360 OA
ATOM      3  C   LIG    1       -0.292  -1.868   1.553  0.00  0.00    +0.197 C 
ATOM      4  C   LIG    1        0.831  -2.449   0.738  0.00  0.00    -0.014 A 
ATOM      5  C   LIG    1        1.341  -3.707   0.578  0.00  0.00    +0.025 A 
ATOM      6  C   LIG    1        2.413  -3.908  -0.262  0.00  0.00    +0.052 A 
ATOM      7  C   LIG    1        3.008  -2.878  -0.962  0.00  0.00    +0.019 A 
ATOM      8  C   LIG    1        2.485  -1.611  -0.793  0.00  0.00    +0.008 A 
ATOM      9  C   LIG    1        1.395  -1.395   0.058  0.00  0.00    -0.006 A 
ENDROOT
BRANCH   1  10
ATOM     10  C   LIG    1        1.469   1.008   0.508  0.00  0.00    -0.011 A 
ATOM     11  C   LIG    1        1.839   1.596   1.708  0.00  0.00    +0.009 A 
ATOM     12  C   LIG    1        2.639   2.723   1.716  0.00  0.00    +0.039 A 
ATOM     13  C   LIG    1        3.081   3.276   0.513  0.00  0.00    +0.123 A 
ATOM     14  F   LIG    1        3.876   4.395   0.514  0.00  0.00    -0.205 F 
ATOM     15  C   LIG    1        2.724   2.704  -0.688  0.00  0.00    +0.039 A 
ATOM     16  C   LIG    1        1.919   1.575  -0.657  0.00  0.00    +0.009 A 
ENDBRANCH   1  10
BRANCH   6  17
ATOM     17  C   LIG    1        2.939  -5.218  -0.425  0.00  0.00    +0.099 C 
ATOM     18  N   LIG    1        3.346  -6.281  -0.548  0.00  0.00    -0.191 NA
ENDBRANCH   6  17
BRANCH   1  19
ATOM     19  C   LIG    1       -0.536   0.081  -0.510  0.00  0.00    +0.046 C 
BRANCH  19  20
ATOM     20  C   LIG    1       -1.237   1.318  -0.021  0.00  0.00    +0.019 C 
BRANCH  20  21
ATOM     21  C   LIG    1       -2.413   1.691  -0.891  0.00  0.00    +0.084 C 
BRANCH  21  22
ATOM     22  N   LIG    1       -3.400   0.627  -0.926  0.00  0.00    -0.308 NA
ATOM     23  C   LIG    1       -3.943   0.372   0.380  0.00  0.00    +0.104 C 
ATOM     24  C   LIG    1       -4.503   1.049  -1.783  0.00  0.00    +0.104 C 
ENDBRANCH  21  22
ENDBRANCH  20  21
ENDBRANCH  19  20
ENDBRANCH   1  19
TORSDOF 6
