REMARK  Name = molecules/WSPOMRSOLSGNFJ-AUWJEWJLSA-N.pdb
REMARK                            x       y       z     vdW  Elec       q    Type
REMARK                         _______ _______ _______ _____ _____    ______ ____
ROOT
ATOM      1  C   LIG    1       -0.831  -0.015  -0.078  0.00  0.00    -0.027 C 
ATOM      2  C   LIG    1       -1.410   1.369   0.072  0.00  0.00    -0.007 A 
ATOM      3  C   LIG    1       -0.564   2.396   0.451  0.00  0.00    +0.009 A 
ATOM      4  C   LIG    1       -1.071   3.669   0.711  0.00  0.00    +0.001 A 
ATOM      5  C   LIG    1       -2.417   3.913   0.591  0.00  0.00    +0.001 A 
ATOM      6  C   LIG    1       -3.257   2.881   0.211  0.00  0.00    +0.015 A 
ATOM      7  C   LIG    1       -2.745   1.654  -0.038  0.00  0.00    +0.020 A 
ATOM      8  S   LIG    1       -3.868   0.413  -0.611  0.00  0.00    -0.088 S 
ATOM      9  C   LIG    1       -3.032  -1.145  -0.507  0.00  0.00    +0.020 A 
ATOM     10  C   LIG    1       -3.793  -2.259  -0.588  0.00  0.00    +0.017 A 
ATOM     11  C   LIG    1       -3.214  -3.484  -0.506  0.00  0.00    +0.021 A 
ATOM     12  C   LIG    1       -1.861  -3.589  -0.338  0.00  0.00    +0.042 A 
ATOM     13 CL   LIG    1       -1.087  -5.159  -0.230  0.00  0.00    -0.084 Cl
ATOM     14  C   LIG    1       -1.058  -2.450  -0.249  0.00  0.00    +0.029 A 
ATOM     15  C   LIG    1       -1.638  -1.200  -0.338  0.00  0.00    -0.006 A 
ENDROOT
BRANCH   1  16
ATOM     16  C   LIG    1        0.480  -0.105  -0.095  0.00  0.00    +0.029 C 
BRANCH  16  17
ATOM     17  C   LIG    1        1.305  -1.287  -0.251  0.00  0.00    +0.024 C 
BRANCH  17  18
ATOM     18  C   LIG    1        2.595  -0.694  -1.032  0.00  0.00    +0.084 C 
BRANCH  18  20
ATOM     19  C   LIG    1        4.149   1.075  -0.605  0.00  0.00    +0.104 C 
ATOM     20  N   LIG    1        3.060   0.284  -0.087  0.00  0.00    -0.308 NA
ATOM     21  C   LIG    1        3.350  -0.241   1.227  0.00  0.00    +0.104 C 
ENDBRANCH  18  20
ENDBRANCH  17  18
ENDBRANCH  16  17
ENDBRANCH   1  16
TORSDOF 4
