REMARK  Name = molecules/WSSJONWNBBTCMG-NWDGAFQWSA-N.pdb
REMARK                            x       y       z     vdW  Elec       q    Type
REMARK                         _______ _______ _______ _____ _____    ______ ____
ROOT
ATOM      1  C   LIG    1        2.018   0.108   0.609  0.00  0.00    +0.343 C 
ATOM      2  O   LIG    1        1.806   0.227   1.836  0.00  0.00    -0.245 OA
ENDROOT
BRANCH   1   3
ATOM      3  C   LIG    1        3.382   0.137   0.126  0.00  0.00    +0.100 A 
ATOM      4  C   LIG    1        4.412   0.294   1.025  0.00  0.00    +0.131 A 
ATOM      5  C   LIG    1        5.740   0.330   0.627  0.00  0.00    +0.046 A 
ATOM      6  C   LIG    1        6.062   0.208  -0.694  0.00  0.00    +0.004 A 
ATOM      7  C   LIG    1        5.040   0.049  -1.612  0.00  0.00    +0.001 A 
ATOM      8  C   LIG    1        3.704   0.013  -1.209  0.00  0.00    +0.018 A 
BRANCH   4   9
ATOM      9  O   LIG    1        4.101   0.419   2.364  0.00  0.00    -0.506 OA
ATOM     10  H   LIG    1        4.844   0.535   3.035  0.00  0.00    +0.292 HD
ENDBRANCH   4   9
ENDBRANCH   1   3
BRANCH   1  11
ATOM     11  O   LIG    1        0.921  -0.046  -0.227  0.00  0.00    -0.458 OA
BRANCH  11  12
ATOM     12  C   LIG    1       -0.404  -0.079   0.203  0.00  0.00    +0.178 C 
ATOM     13  C   LIG    1       -1.114  -1.379  -0.201  0.00  0.00    +0.048 C 
ATOM     14  C   LIG    1       -2.367  -1.387   0.662  0.00  0.00    -0.010 C 
ATOM     15  C   LIG    1       -3.093  -2.708   0.531  0.00  0.00    +0.007 C 
ATOM     16  C   LIG    1       -3.218  -0.212   0.393  0.00  0.00    +0.010 C 
ATOM     17  C   LIG    1       -2.646   0.854  -0.459  0.00  0.00    -0.031 C 
ATOM     18  C   LIG    1       -3.274   2.178   0.017  0.00  0.00    +0.011 C 
ATOM     19  C   LIG    1       -3.106   0.708  -1.909  0.00  0.00    +0.011 C 
ATOM     20  C   LIG    1       -1.181   1.038  -0.415  0.00  0.00    +0.051 C 
ENDBRANCH  11  12
ENDBRANCH   1  11
TORSDOF 4
