REMARK  Name = molecules/WSVOMANDJDYYEY-CWNVBEKCSA-N.pdb
REMARK                            x       y       z     vdW  Elec       q    Type
REMARK                         _______ _______ _______ _____ _____    ______ ____
ROOT
ATOM      1  C   LIG    1        1.482   1.768  -0.147  0.00  0.00    +0.015 C 
ATOM      2  C   LIG    1        1.423   0.280  -0.236  0.00  0.00    +0.013 C 
ATOM      3  C   LIG    1        0.724  -0.289   0.995  0.00  0.00    +0.006 C 
ATOM      4  C   LIG    1        1.587   0.255   2.078  0.00  0.00    +0.038 C 
ATOM      5  C   LIG    1        2.948   0.123   1.480  0.00  0.00    -0.037 C 
ATOM      6  C   LIG    1        4.082   0.323   2.138  0.00  0.00    +0.011 C 
ATOM      7  C   LIG    1       -0.722   0.073   1.059  0.00  0.00    -0.000 C 
ATOM      8  C   LIG    1       -1.340  -0.732   2.174  0.00  0.00    +0.008 C 
ATOM      9  C   LIG    1       -2.821  -0.844   2.151  0.00  0.00    +0.032 C 
ATOM     10  C   LIG    1       -3.446  -0.734   0.811  0.00  0.00    -0.056 C 
ATOM     11  C   LIG    1       -4.495  -1.482   0.572  0.00  0.00    +0.051 C 
ATOM     12  C   LIG    1       -5.129  -1.424  -0.725  0.00  0.00    +0.179 C 
ATOM     13  O   LIG    1       -6.125  -2.132  -0.954  0.00  0.00    -0.288 OA
ATOM     14  C   LIG    1       -4.564  -0.529  -1.709  0.00  0.00    +0.047 C 
ATOM     15  C   LIG    1       -3.512   0.211  -1.444  0.00  0.00    -0.012 C 
ATOM     16  C   LIG    1       -2.814   0.206  -0.142  0.00  0.00    +0.013 C 
ATOM     17  C   LIG    1       -2.894   1.592   0.505  0.00  0.00    +0.020 C 
ATOM     18  C   LIG    1       -1.373  -0.248  -0.247  0.00  0.00    +0.035 C 
ATOM     19  C   LIG    1       -0.674   0.269  -1.451  0.00  0.00    +0.120 C 
ATOM     20  C   LIG    1        2.803  -0.267   0.034  0.00  0.00    +0.152 C 
ATOM     21  C   LIG    1        0.753  -0.262  -1.433  0.00  0.00    +0.042 C 
ENDROOT
BRANCH  19  22
ATOM     22  O   LIG    1       -0.702   1.638  -1.593  0.00  0.00    -0.391 OA
ATOM     23  H   LIG    1       -1.005   1.961  -2.465  0.00  0.00    +0.210 HD
ENDBRANCH  19  22
BRANCH  20  24
ATOM     24  O   LIG    1        2.715  -1.649   0.011  0.00  0.00    -0.376 OA
ATOM     25  H   LIG    1        3.373  -2.038   0.664  0.00  0.00    +0.211 HD
ENDBRANCH  20  24
BRANCH  20  26
ATOM     26  C   LIG    1        3.843   0.281  -0.815  0.00  0.00    +0.194 C 
ATOM     27  O   LIG    1        4.025   1.478  -0.885  0.00  0.00    -0.292 OA
BRANCH  26  28
ATOM     28  C   LIG    1        4.710  -0.613  -1.619  0.00  0.00    +0.233 C 
BRANCH  28  29
ATOM     29  O   LIG    1        5.640   0.093  -2.364  0.00  0.00    -0.387 OA
ATOM     30  H   LIG    1        6.524   0.137  -1.901  0.00  0.00    +0.210 HD
ENDBRANCH  28  29
ENDBRANCH  26  28
ENDBRANCH  20  26
TORSDOF 5
