REMARK  Name = molecules/WSWJIZXMAUYHOE-UHFFFAOYSA-N.pdb
REMARK                            x       y       z     vdW  Elec       q    Type
REMARK                         _______ _______ _______ _____ _____    ______ ____
ROOT
ATOM      1  C   LIG    1       -1.735  -0.667   0.596  0.00  0.00    +0.204 A 
ATOM      2  C   LIG    1       -1.074  -0.086   1.663  0.00  0.00    +0.165 A 
ATOM      3  C   LIG    1        0.258  -0.430   1.861  0.00  0.00    +0.053 A 
ATOM      4  C   LIG    1        0.912  -1.317   1.035  0.00  0.00    -0.036 A 
ATOM      5  C   LIG    1        0.222  -1.873  -0.013  0.00  0.00    +0.053 A 
ATOM      6  C   LIG    1       -1.117  -1.563  -0.259  0.00  0.00    +0.165 A 
ENDROOT
BRANCH   2   7
ATOM      7  O   LIG    1       -1.694   0.811   2.519  0.00  0.00    -0.491 OA
ATOM      8  C   LIG    1       -0.957   1.367   3.590  0.00  0.00    +0.277 C 
ENDBRANCH   2   7
BRANCH   6   9
ATOM      9  O   LIG    1       -1.782  -2.142  -1.324  0.00  0.00    -0.491 OA
ATOM     10  C   LIG    1       -1.089  -3.041  -2.147  0.00  0.00    +0.277 C 
ENDBRANCH   6   9
BRANCH   1  11
ATOM     11  O   LIG    1       -3.066  -0.365   0.344  0.00  0.00    -0.483 OA
BRANCH  11  12
ATOM     12  C   LIG    1       -3.441   0.715  -0.507  0.00  0.00    +0.257 C 
BRANCH  12  13
ATOM     13  C   LIG    1       -4.946   0.795  -0.589  0.00  0.00    +0.200 C 
BRANCH  13  14
ATOM     14  O   LIG    1       -5.349   1.824  -1.407  0.00  0.00    -0.380 OA
ATOM     15  C   LIG    1       -4.898   3.050  -0.938  0.00  0.00    +0.194 C 
ENDBRANCH  13  14
ENDBRANCH  12  13
ENDBRANCH  11  12
ENDBRANCH   1  11
BRANCH   4  16
ATOM     16  C   LIG    1        2.327  -1.657   1.292  0.00  0.00    +0.075 C 
BRANCH  16  17
ATOM     17  C   LIG    1        3.301  -0.704   0.758  0.00  0.00    +0.015 A 
ATOM     18  C   LIG    1        3.889   0.182   1.649  0.00  0.00    +0.121 A 
ATOM     19  N   LIG    1        4.784   1.085   1.232  0.00  0.00    -0.223 NA
ATOM     20  C   LIG    1        5.141   1.165  -0.057  0.00  0.00    +0.214 A 
ATOM     21  N   LIG    1        4.580   0.315  -0.925  0.00  0.00    -0.200 NA
ATOM     22  C   LIG    1        3.668  -0.625  -0.577  0.00  0.00    +0.125 A 
BRANCH  20  23
ATOM     23  N   LIG    1        6.108   2.143  -0.500  0.00  0.00    -0.327 N 
ATOM     24  H   LIG    1        6.099   3.102  -0.088  0.00  0.00    +0.145 HD
ATOM     25  H   LIG    1        6.793   1.868  -1.222  0.00  0.00    +0.145 HD
ENDBRANCH  20  23
BRANCH  22  26
ATOM     26  N   LIG    1        3.096  -1.509  -1.506  0.00  0.00    -0.343 N 
ATOM     27  H   LIG    1        3.147  -2.531  -1.373  0.00  0.00    +0.144 HD
ATOM     28  H   LIG    1        2.613  -1.132  -2.339  0.00  0.00    +0.144 HD
ENDBRANCH  22  26
ENDBRANCH  16  17
ENDBRANCH   4  16
TORSDOF 10
