REMARK  Name = molecules/WTDYJDLUNYALPM-UHFFFAOYSA-N.pdb
REMARK                            x       y       z     vdW  Elec       q    Type
REMARK                         _______ _______ _______ _____ _____    ______ ____
ROOT
ATOM      1  C   LIG    1       -0.729  -0.586   0.727  0.00  0.00    -0.010 A 
ATOM      2  C   LIG    1        0.415  -0.189   1.386  0.00  0.00    +0.056 A 
ATOM      3  C   LIG    1        1.605   0.041   0.700  0.00  0.00    +0.162 A 
ATOM      4  O   LIG    1        2.759   0.440   1.357  0.00  0.00    -0.485 OA
ATOM      5  C   LIG    1        4.030   0.458   0.794  0.00  0.00    +0.270 C 
ATOM      6  C   LIG    1        4.028   0.563  -0.709  0.00  0.00    +0.270 C 
ATOM      7  O   LIG    1        2.860   0.111  -1.306  0.00  0.00    -0.485 OA
ATOM      8  C   LIG    1        1.678  -0.122  -0.665  0.00  0.00    +0.162 A 
ATOM      9  C   LIG    1        0.520  -0.525  -1.334  0.00  0.00    +0.050 A 
ATOM     10  C   LIG    1       -0.649  -0.747  -0.639  0.00  0.00    +0.010 A 
ENDROOT
BRANCH   1  11
ATOM     11  C   LIG    1       -1.995  -0.828   1.503  0.00  0.00    +0.231 C 
BRANCH  11  12
ATOM     12  N   LIG    1       -3.112  -0.990   0.604  0.00  0.00    -0.272 N 
ATOM     13  H   LIG    1       -3.627  -1.895   0.615  0.00  0.00    +0.258 HD
BRANCH  12  14
ATOM     14  C   LIG    1       -3.524   0.044  -0.287  0.00  0.00    +0.376 C 
ATOM     15  N   LIG    1       -3.155   1.385  -0.025  0.00  0.00    -0.289 N 
ATOM     16  H   LIG    1       -2.288   1.566   0.510  0.00  0.00    +0.255 HD
ATOM     17  H   LIG    1       -3.713   2.201  -0.345  0.00  0.00    +0.255 HD
BRANCH  14  18
ATOM     18  N   LIG    1       -4.226  -0.276  -1.310  0.00  0.00    -0.130 NA
ATOM     19  H   LIG    1       -4.524   0.485  -1.957  0.00  0.00    +0.306 HD
ENDBRANCH  14  18
ENDBRANCH  12  14
ENDBRANCH  11  12
ENDBRANCH   1  11
TORSDOF 4
