REMARK  Name = molecules/WTFXJFJYEJZMFO-UHFFFAOYSA-N.pdb
REMARK                            x       y       z     vdW  Elec       q    Type
REMARK                         _______ _______ _______ _____ _____    ______ ____
ROOT
ATOM      1  C   LIG    1        0.530  -2.638   0.159  0.00  0.00    +0.082 C 
ENDROOT
BRANCH   1   2
ATOM      2  C   LIG    1        0.914  -2.269   1.553  0.00  0.00    +0.232 C 
BRANCH   2   3
ATOM      3  O   LIG    1        1.403  -0.980   1.618  0.00  0.00    -0.492 OA
BRANCH   3   4
ATOM      4  C   LIG    1        2.536  -0.483   1.058  0.00  0.00    +0.121 A 
ATOM      5  C   LIG    1        2.769   0.894   1.250  0.00  0.00    +0.046 A 
ATOM      6  C   LIG    1        3.878   1.496   0.723  0.00  0.00    +0.019 A 
ATOM      7  C   LIG    1        4.833   0.791  -0.025  0.00  0.00    +0.065 A 
ATOM      8  C   LIG    1        4.617  -0.542  -0.215  0.00  0.00    +0.019 A 
ATOM      9  C   LIG    1        3.477  -1.151   0.329  0.00  0.00    +0.046 A 
BRANCH   7  10
ATOM     10  C   LIG    1        5.981   1.489  -0.552  0.00  0.00    +0.306 C 
ATOM     11  N   LIG    1        6.150   2.885  -0.318  0.00  0.00    -0.286 N 
ATOM     12  H   LIG    1        6.094   3.207   0.677  0.00  0.00    +0.301 HD
ATOM     13  H   LIG    1        6.318   3.525  -1.105  0.00  0.00    +0.301 HD
BRANCH  10  14
ATOM     14  N   LIG    1        6.869   0.896  -1.233  0.00  0.00    -0.069 NA
ATOM     15  H   LIG    1        6.848  -0.100  -1.460  0.00  0.00    +0.348 HD
ENDBRANCH  10  14
ENDBRANCH   7  10
ENDBRANCH   3   4
ENDBRANCH   2   3
ENDBRANCH   1   2
BRANCH   1  16
ATOM     16  C   LIG    1       -0.568  -1.650  -0.273  0.00  0.00    +0.232 C 
BRANCH  16  17
ATOM     17  O   LIG    1       -1.666  -1.772   0.605  0.00  0.00    -0.492 OA
BRANCH  17  18
ATOM     18  C   LIG    1       -2.768  -0.983   0.411  0.00  0.00    +0.121 A 
ATOM     19  C   LIG    1       -3.843  -1.083   1.247  0.00  0.00    +0.046 A 
ATOM     20  C   LIG    1       -4.946  -0.271   1.026  0.00  0.00    +0.019 A 
ATOM     21  C   LIG    1       -5.011   0.637  -0.002  0.00  0.00    +0.065 A 
ATOM     22  C   LIG    1       -3.897   0.724  -0.849  0.00  0.00    +0.019 A 
ATOM     23  C   LIG    1       -2.799  -0.088  -0.624  0.00  0.00    +0.046 A 
BRANCH  21  24
ATOM     24  C   LIG    1       -6.133   1.496  -0.265  0.00  0.00    +0.306 C 
ATOM     25  N   LIG    1       -6.099   2.402  -1.356  0.00  0.00    -0.286 N 
ATOM     26  H   LIG    1       -6.318   3.417  -1.282  0.00  0.00    +0.301 HD
ATOM     27  H   LIG    1       -5.827   1.976  -2.292  0.00  0.00    +0.301 HD
BRANCH  24  28
ATOM     28  N   LIG    1       -7.176   1.475   0.456  0.00  0.00    -0.069 NA
ATOM     29  H   LIG    1       -7.297   0.855   1.269  0.00  0.00    +0.348 HD
ENDBRANCH  24  28
ENDBRANCH  21  24
ENDBRANCH  17  18
ENDBRANCH  16  17
ENDBRANCH   1  16
TORSDOF 10
