REMARK  Name = molecules/WTJBNMUWRKPFRS-UHFFFAOYSA-N.pdb
REMARK                            x       y       z     vdW  Elec       q    Type
REMARK                         _______ _______ _______ _____ _____    ______ ____
ROOT
ATOM      1  C   LIG    1        0.350  -0.293   0.057  0.00  0.00    +0.095 C 
ATOM      2  C   LIG    1        1.282  -0.144   1.222  0.00  0.00    +0.038 C 
ATOM      3  C   LIG    1        2.478   0.750   0.819  0.00  0.00    +0.085 C 
ATOM      4  N   LIG    1        3.147  -0.047  -0.223  0.00  0.00    -0.305 NA
ATOM      5  C   LIG    1        4.522   0.285  -0.370  0.00  0.00    +0.104 C 
ATOM      6  C   LIG    1        2.352   0.089  -1.401  0.00  0.00    +0.085 C 
ATOM      7  C   LIG    1        1.069  -0.691  -1.212  0.00  0.00    +0.038 C 
ENDROOT
BRANCH   1   8
ATOM      8  C   LIG    1       -0.741  -1.243   0.292  0.00  0.00    -0.027 A 
ATOM      9  C   LIG    1       -0.697  -2.151   1.317  0.00  0.00    +0.005 A 
ATOM     10  C   LIG    1       -1.752  -3.047   1.523  0.00  0.00    +0.004 A 
ATOM     11  C   LIG    1       -2.827  -2.982   0.664  0.00  0.00    +0.045 A 
ATOM     12  C   LIG    1       -2.896  -2.076  -0.376  0.00  0.00    +0.117 A 
ATOM     13  C   LIG    1       -1.851  -1.199  -0.569  0.00  0.00    +0.050 A 
BRANCH  12  14
ATOM     14  O   LIG    1       -4.011  -2.050  -1.221  0.00  0.00    -0.507 OA
ATOM     15  H   LIG    1       -4.811  -1.449  -0.986  0.00  0.00    +0.292 HD
ENDBRANCH  12  14
ENDBRANCH   1   8
BRANCH   1  16
ATOM     16  C   LIG    1       -0.291   1.042  -0.175  0.00  0.00    +0.318 C 
ATOM     17  O   LIG    1       -0.115   1.651  -1.258  0.00  0.00    -0.250 OA
BRANCH  16  18
ATOM     18  O   LIG    1       -1.068   1.577   0.816  0.00  0.00    -0.464 OA
BRANCH  18  19
ATOM     19  C   LIG    1       -1.722   2.848   0.685  0.00  0.00    +0.229 C 
ATOM     20  C   LIG    1       -2.655   2.765  -0.495  0.00  0.00    +0.048 C 
ENDBRANCH  18  19
ENDBRANCH  16  18
ENDBRANCH   1  16
TORSDOF 5
