REMARK  Name = molecules/WTWWXOGTJWMJHI-UHFFFAOYSA-N.pdb
REMARK                            x       y       z     vdW  Elec       q    Type
REMARK                         _______ _______ _______ _____ _____    ______ ____
ROOT
ATOM      1  C   LIG    1        0.535   0.565  -0.339  0.00  0.00    +0.384 C 
ATOM      2  F   LIG    1        0.611   1.759   0.325  0.00  0.00    -0.192 F 
ATOM      3  F   LIG    1        0.563   0.709  -1.705  0.00  0.00    -0.192 F 
ENDROOT
BRANCH   1   4
ATOM      4  C   LIG    1        1.712  -0.293   0.080  0.00  0.00    +0.385 C 
ATOM      5  F   LIG    1        1.748  -0.420   1.450  0.00  0.00    -0.192 F 
ATOM      6  F   LIG    1        1.681  -1.529  -0.552  0.00  0.00    -0.192 F 
BRANCH   4   7
ATOM      7  C   LIG    1        2.981   0.392  -0.348  0.00  0.00    +0.388 C 
ATOM      8  F   LIG    1        3.122   1.644   0.181  0.00  0.00    -0.191 F 
ATOM      9  F   LIG    1        3.072   0.488  -1.730  0.00  0.00    -0.191 F 
BRANCH   7  10
ATOM     10  C   LIG    1        4.148  -0.498   0.088  0.00  0.00    +0.370 C 
ATOM     11  F   LIG    1        4.130  -0.693   1.458  0.00  0.00    -0.186 F 
ATOM     12 BR   LIG    1        5.835   0.305  -0.422  0.00  0.00    -0.004 Br
ATOM     13  F   LIG    1        4.060  -1.717  -0.544  0.00  0.00    -0.186 F 
ENDBRANCH   7  10
ENDBRANCH   4   7
ENDBRANCH   1   4
BRANCH   1  14
ATOM     14  C   LIG    1       -0.784  -0.097   0.079  0.00  0.00    +0.384 C 
ATOM     15  F   LIG    1       -0.774  -0.408   1.401  0.00  0.00    -0.192 F 
ATOM     16  F   LIG    1       -0.826  -1.308  -0.633  0.00  0.00    -0.192 F 
BRANCH  14  17
ATOM     17  C   LIG    1       -1.880   0.808  -0.369  0.00  0.00    +0.387 C 
ATOM     18  F   LIG    1       -1.661   2.050   0.259  0.00  0.00    -0.192 F 
ATOM     19  F   LIG    1       -1.669   1.076  -1.714  0.00  0.00    -0.192 F 
BRANCH  17  20
ATOM     20  C   LIG    1       -3.268   0.408  -0.067  0.00  0.00    +0.409 C 
ATOM     21  F   LIG    1       -3.514   0.378   1.318  0.00  0.00    -0.189 F 
ATOM     22  F   LIG    1       -4.168   1.388  -0.521  0.00  0.00    -0.189 F 
BRANCH  20  23
ATOM     23  C   LIG    1       -3.758  -0.884  -0.619  0.00  0.00    +0.460 C 
ATOM     24  F   LIG    1       -3.113  -1.998  -0.051  0.00  0.00    -0.165 F 
ATOM     25  F   LIG    1       -5.107  -1.099  -0.252  0.00  0.00    -0.165 F 
ATOM     26  F   LIG    1       -3.676  -1.025  -1.969  0.00  0.00    -0.165 F 
ENDBRANCH  20  23
ENDBRANCH  17  20
ENDBRANCH  14  17
ENDBRANCH   1  14
TORSDOF 7
