REMARK  Name = molecules/WTYGAUXICFETTC-UHFFFAOYSA-N.pdb
REMARK                            x       y       z     vdW  Elec       q    Type
REMARK                         _______ _______ _______ _____ _____    ______ ____
ROOT
ATOM      1  C   LIG    1       -0.754  -0.357  -0.285  0.00  0.00    +0.144 C 
ATOM      2  C   LIG    1       -1.357  -0.988   0.916  0.00  0.00    +0.240 C 
ATOM      3  O   LIG    1       -0.760  -1.176   1.996  0.00  0.00    -0.274 OA
ATOM      4  N   LIG    1       -2.722  -1.407   0.820  0.00  0.00    -0.239 N 
ATOM      5  H   LIG    1       -3.357  -1.449   1.640  0.00  0.00    +0.159 HD
ATOM      6  C   LIG    1       -3.267  -1.793  -0.455  0.00  0.00    +0.312 C 
ATOM      7  O   LIG    1       -4.464  -2.168  -0.581  0.00  0.00    -0.252 OA
ATOM      8  N   LIG    1       -2.364  -1.721  -1.553  0.00  0.00    -0.239 N 
ATOM      9  H   LIG    1       -2.757  -2.008  -2.502  0.00  0.00    +0.159 HD
ATOM     10  C   LIG    1       -1.014  -1.298  -1.409  0.00  0.00    +0.240 C 
ATOM     11  O   LIG    1       -0.174  -1.723  -2.200  0.00  0.00    -0.274 OA
ENDROOT
BRANCH   1  12
ATOM     12  C   LIG    1        0.666  -0.093  -0.080  0.00  0.00    -0.050 C 
ATOM     13  C   LIG    1        1.671  -1.076   0.405  0.00  0.00    +0.032 C 
ATOM     14  C   LIG    1        2.422  -0.384   1.526  0.00  0.00    +0.005 C 
ATOM     15  C   LIG    1        3.228   0.757   1.025  0.00  0.00    +0.004 C 
ATOM     16  C   LIG    1        2.637   1.401  -0.171  0.00  0.00    +0.027 C 
ATOM     17  C   LIG    1        1.169   1.093  -0.374  0.00  0.00    -0.026 C 
ENDBRANCH   1  12
BRANCH   1  18
ATOM     18  C   LIG    1       -1.566   0.874  -0.612  0.00  0.00    +0.026 C 
ATOM     19  C   LIG    1       -1.508   1.970   0.384  0.00  0.00    +0.005 C 
ENDBRANCH   1  18
TORSDOF 2
