REMARK  Name = molecules/WUBBRNOQWQTFEX-UHFFFAOYSA-N.pdb
REMARK                            x       y       z     vdW  Elec       q    Type
REMARK                         _______ _______ _______ _____ _____    ______ ____
ROOT
ATOM      1  C   LIG    1        1.698  -0.278  -0.113  0.00  0.00    +0.028 A 
ATOM      2  C   LIG    1        1.182   0.964   0.058  0.00  0.00    +0.069 A 
ATOM      3  C   LIG    1       -0.198   1.214   0.127  0.00  0.00    +0.133 A 
ATOM      4  C   LIG    1       -1.071   0.157   0.018  0.00  0.00    +0.100 A 
ATOM      5  C   LIG    1       -0.535  -1.126  -0.159  0.00  0.00    +0.020 A 
ATOM      6  C   LIG    1        0.823  -1.324  -0.221  0.00  0.00    +0.024 A 
ENDROOT
BRANCH   1   7
ATOM      7  N   LIG    1        3.118  -0.489  -0.179  0.00  0.00    -0.358 N 
ATOM      8  H   LIG    1        3.777   0.276  -0.002  0.00  0.00    +0.142 HD
ATOM      9  H   LIG    1        3.478  -1.442  -0.412  0.00  0.00    +0.142 HD
ENDBRANCH   1   7
BRANCH   3  10
ATOM     10  O   LIG    1       -0.600   2.511   0.301  0.00  0.00    -0.506 OA
ATOM     11  H   LIG    1       -1.482   2.930   0.379  0.00  0.00    +0.292 HD
ENDBRANCH   3  10
BRANCH   4  12
ATOM     12  C   LIG    1       -2.509   0.274   0.072  0.00  0.00    +0.340 C 
ATOM     13  O   LIG    1       -3.054   1.377   0.226  0.00  0.00    -0.245 OA
BRANCH  12  14
ATOM     14  O   LIG    1       -3.332  -0.831  -0.045  0.00  0.00    -0.477 OA
ATOM     15  H   LIG    1       -3.153  -1.721   0.410  0.00  0.00    +0.295 HD
ENDBRANCH  12  14
ENDBRANCH   4  12
TORSDOF 4
