REMARK  Name = molecules/WUZYKBABMWJHDL-UHFFFAOYSA-N.pdb
REMARK                            x       y       z     vdW  Elec       q    Type
REMARK                         _______ _______ _______ _____ _____    ______ ____
ROOT
ATOM      1 CL   LIG    1       -3.137  -5.535   1.044  0.00  0.00    -0.084 Cl
ATOM      2  C   LIG    1       -2.812  -3.811   0.953  0.00  0.00    +0.041 A 
ATOM      3  C   LIG    1       -1.905  -3.189   1.792  0.00  0.00    +0.020 A 
ATOM      4  C   LIG    1       -1.681  -1.824   1.680  0.00  0.00    +0.010 A 
ATOM      5  C   LIG    1       -2.355  -1.083   0.737  0.00  0.00    -0.013 A 
ATOM      6  C   LIG    1       -1.972   0.316   0.789  0.00  0.00    +0.007 C 
ATOM      7  C   LIG    1       -0.717   0.597   0.886  0.00  0.00    -0.057 C 
ATOM      8  C   LIG    1       -0.151   1.981   0.975  0.00  0.00    +0.047 C 
ATOM      9  C   LIG    1        1.335   2.031   1.157  0.00  0.00    +0.089 C 
ATOM     10  N   LIG    1        2.143   1.166   0.366  0.00  0.00    -0.298 NA
ATOM     11  C   LIG    1        1.342   0.203  -0.297  0.00  0.00    +0.089 C 
ATOM     12  C   LIG    1        0.349  -0.443   0.715  0.00  0.00    +0.047 C 
ATOM     13  C   LIG    1       -2.991   1.382   0.593  0.00  0.00    +0.075 A 
ATOM     14  N   LIG    1       -2.558   2.530   1.025  0.00  0.00    -0.255 NA
ATOM     15  C   LIG    1       -3.323   3.627   0.914  0.00  0.00    +0.111 A 
ATOM     16  C   LIG    1       -4.590   3.617   0.349  0.00  0.00    +0.020 A 
ATOM     17  C   LIG    1       -5.042   2.372  -0.111  0.00  0.00    +0.007 A 
ATOM     18  C   LIG    1       -4.262   1.245   0.000  0.00  0.00    -0.021 A 
ATOM     19  C   LIG    1       -4.951   0.060  -0.537  0.00  0.00    +0.042 C 
ATOM     20  C   LIG    1       -4.095  -1.006  -1.130  0.00  0.00    +0.040 C 
ATOM     21  C   LIG    1       -3.264  -1.721  -0.096  0.00  0.00    -0.038 A 
ATOM     22  C   LIG    1       -3.500  -3.070   0.000  0.00  0.00    +0.024 A 
ENDROOT
BRANCH  10  23
ATOM     23  C   LIG    1        3.242   0.587   1.111  0.00  0.00    +0.121 C 
BRANCH  23  24
ATOM     24  C   LIG    1        4.054  -0.297   0.245  0.00  0.00    -0.015 A 
ATOM     25  C   LIG    1        3.823  -1.665   0.161  0.00  0.00    +0.115 A 
ATOM     26  N   LIG    1        4.566  -2.465  -0.618  0.00  0.00    -0.263 NA
ATOM     27  C   LIG    1        5.587  -2.013  -1.374  0.00  0.00    +0.114 A 
ATOM     28  C   LIG    1        5.859  -0.648  -1.325  0.00  0.00    -0.032 A 
ATOM     29  C   LIG    1        6.975  -0.100  -2.140  0.00  0.00    +0.045 C 
ATOM     30  C   LIG    1        5.111   0.178  -0.537  0.00  0.00    +0.011 A 
ENDBRANCH  23  24
ENDBRANCH  10  23
TORSDOF 2
