REMARK  Name = molecules/WVAKABMNNSMCDK-UHFFFAOYSA-N.pdb
REMARK                            x       y       z     vdW  Elec       q    Type
REMARK                         _______ _______ _______ _____ _____    ______ ____
ROOT
ATOM      1  S   LIG    1       -1.261  -0.045  -1.180  0.00  0.00    +0.076 S 
ATOM      2  O   LIG    1       -1.664  -1.409  -1.702  0.00  0.00    -0.150 OA
ATOM      3  O   LIG    1       -1.491   0.950  -2.303  0.00  0.00    -0.150 OA
ENDROOT
BRANCH   1   4
ATOM      4  N   LIG    1       -2.369   0.305   0.100  0.00  0.00    -0.169 N 
ATOM      5  H   LIG    1       -2.093   0.770   0.991  0.00  0.00    +0.178 HD
ATOM      6  C   LIG    1       -3.730  -0.062  -0.063  0.00  0.00    +0.316 C 
ATOM      7  N   LIG    1       -4.713   0.178   0.928  0.00  0.00    -0.312 N 
ATOM      8  H   LIG    1       -4.713  -0.319   1.866  0.00  0.00    +0.147 HD
ATOM      9  H   LIG    1       -5.500   0.859   0.795  0.00  0.00    +0.147 HD
ATOM     10  O   LIG    1       -4.088  -0.626  -1.134  0.00  0.00    -0.251 OA
ENDBRANCH   1   4
BRANCH   1  11
ATOM     11  C   LIG    1        0.396  -0.015  -0.686  0.00  0.00    +0.109 A 
ATOM     12  C   LIG    1        0.951  -1.121  -0.078  0.00  0.00    +0.030 A 
ATOM     13  C   LIG    1        2.262  -1.154   0.331  0.00  0.00    +0.024 A 
ATOM     14  C   LIG    1        3.057  -0.025   0.123  0.00  0.00    +0.025 A 
ATOM     15  C   LIG    1        2.534   1.095  -0.479  0.00  0.00    +0.024 A 
ATOM     16  C   LIG    1        1.191   1.090  -0.883  0.00  0.00    +0.030 A 
BRANCH  14  17
ATOM     17  N   LIG    1        4.400  -0.101   0.548  0.00  0.00    -0.358 N 
ATOM     18  H   LIG    1        4.734   0.493   1.337  0.00  0.00    +0.142 HD
ATOM     19  H   LIG    1        5.121  -0.743   0.111  0.00  0.00    +0.142 HD
ENDBRANCH  14  17
ENDBRANCH   1  11
TORSDOF 3
