REMARK  Name = molecules/WVDDGKGOMKODPV-UHFFFAOYSA-N.pdb
REMARK                            x       y       z     vdW  Elec       q    Type
REMARK                         _______ _______ _______ _____ _____    ______ ____
ROOT
ATOM      1  C   LIG    1       -0.508  -0.158  -0.208  0.00  0.00    -0.022 A 
ATOM      2  C   LIG    1        0.258  -1.271   0.009  0.00  0.00    +0.006 A 
ATOM      3  C   LIG    1        1.609  -1.153   0.235  0.00  0.00    +0.000 A 
ATOM      4  C   LIG    1        2.200   0.105   0.244  0.00  0.00    +0.000 A 
ATOM      5  C   LIG    1        1.439   1.233   0.026  0.00  0.00    +0.000 A 
ATOM      6  C   LIG    1        0.092   1.082  -0.197  0.00  0.00    +0.006 A 
ENDROOT
BRANCH   1   7
ATOM      7  C   LIG    1       -1.968  -0.217  -0.456  0.00  0.00    +0.191 C 
BRANCH   7   8
ATOM      8  O   LIG    1       -2.618  -0.084   0.786  0.00  0.00    -0.390 OA
ATOM      9  H   LIG    1       -2.626   0.869   1.081  0.00  0.00    +0.210 HD
ENDBRANCH   7   8
ENDBRANCH   1   7
TORSDOF 2
