REMARK  Name = molecules/WVKSUFYQOHQCMM-YGZHYJPASA-N.pdb
REMARK                            x       y       z     vdW  Elec       q    Type
REMARK                         _______ _______ _______ _____ _____    ______ ____
ROOT
ATOM      1  C   LIG    1       -0.367  -0.596  -1.959  0.00  0.00    +0.015 C 
ATOM      2  C   LIG    1       -0.629   0.264  -0.774  0.00  0.00    +0.009 C 
ATOM      3  C   LIG    1       -0.923  -0.476   0.473  0.00  0.00    +0.041 C 
ATOM      4  C   LIG    1       -2.286  -1.121   0.461  0.00  0.00    +0.120 C 
ATOM      5  C   LIG    1       -3.348  -0.111   0.199  0.00  0.00    +0.035 C 
ATOM      6  C   LIG    1       -4.754  -0.629   0.327  0.00  0.00    +0.013 C 
ATOM      7  C   LIG    1       -4.949  -1.172   1.676  0.00  0.00    -0.012 C 
ATOM      8  C   LIG    1       -5.816  -0.755   2.581  0.00  0.00    +0.047 C 
ATOM      9  C   LIG    1       -6.693   0.361   2.256  0.00  0.00    +0.179 C 
ATOM     10  O   LIG    1       -7.519   0.766   3.103  0.00  0.00    -0.288 OA
ATOM     11  C   LIG    1       -6.537   0.937   0.931  0.00  0.00    +0.051 C 
ATOM     12  C   LIG    1       -5.660   0.487   0.066  0.00  0.00    -0.056 C 
ATOM     13  C   LIG    1       -5.564   1.169  -1.264  0.00  0.00    +0.032 C 
ATOM     14  C   LIG    1       -4.132   1.595  -1.495  0.00  0.00    +0.008 C 
ATOM     15  C   LIG    1       -5.050  -1.697  -0.717  0.00  0.00    +0.020 C 
ATOM     16  C   LIG    1       -3.111   0.572  -1.140  0.00  0.00    -0.000 C 
ATOM     17  C   LIG    1        0.454   1.308  -0.658  0.00  0.00    +0.133 C 
ATOM     18  C   LIG    1        0.201   2.097  -1.956  0.00  0.00    +0.043 C 
ATOM     19  C   LIG    1       -1.277   1.912  -2.268  0.00  0.00    +0.008 C 
ATOM     20  C   LIG    1       -1.790   1.241  -1.028  0.00  0.00    +0.002 C 
ENDROOT
BRANCH   4  21
ATOM     21  O   LIG    1       -2.335  -2.262  -0.293  0.00  0.00    -0.391 OA
ATOM     22  H   LIG    1       -2.537  -2.178  -1.234  0.00  0.00    +0.210 HD
ENDBRANCH   4  21
BRANCH  17  23
ATOM     23  O   LIG    1        0.144   2.186   0.395  0.00  0.00    -0.380 OA
ATOM     24  H   LIG    1        0.320   1.780   1.251  0.00  0.00    +0.211 HD
ENDBRANCH  17  23
BRANCH  17  25
ATOM     25  C   LIG    1        1.813   0.821  -0.544  0.00  0.00    +0.202 C 
ATOM     26  O   LIG    1        2.308   0.059  -1.345  0.00  0.00    -0.291 OA
BRANCH  25  27
ATOM     27  C   LIG    1        2.644   1.268   0.599  0.00  0.00    +0.309 C 
BRANCH  27  28
ATOM     28  O   LIG    1        3.957   0.732   0.546  0.00  0.00    -0.453 OA
BRANCH  28  29
ATOM     29  C   LIG    1        4.240  -0.615   0.558  0.00  0.00    +0.340 C 
ATOM     30  O   LIG    1        3.273  -1.413   0.620  0.00  0.00    -0.245 OA
BRANCH  29  31
ATOM     31  C   LIG    1        5.600  -1.154   0.502  0.00  0.00    +0.061 A 
ATOM     32  C   LIG    1        5.830  -2.513   0.518  0.00  0.00    +0.015 A 
ATOM     33  C   LIG    1        7.121  -3.039   0.467  0.00  0.00    +0.003 A 
ATOM     34  C   LIG    1        8.214  -2.189   0.397  0.00  0.00    +0.029 A 
ATOM     35  C   LIG    1        7.995  -0.822   0.380  0.00  0.00    +0.118 A 
ATOM     36  C   LIG    1        6.701  -0.330   0.433  0.00  0.00    +0.044 A 
BRANCH  35  37
ATOM     37  S   LIG    1        9.399   0.219   0.292  0.00  0.00    +0.110 S 
ATOM     38  O   LIG    1        9.004   1.508  -0.337  0.00  0.00    -0.142 OA
ATOM     39  O   LIG    1       10.526  -0.445  -0.449  0.00  0.00    -0.142 OA
BRANCH  37  40
ATOM     40  O   LIG    1        9.876   0.553   1.876  0.00  0.00    -0.250 OA
ATOM     41  H   LIG    1       10.201   1.487   1.975  0.00  0.00    +0.245 HD
ENDBRANCH  37  40
ENDBRANCH  35  37
ENDBRANCH  29  31
ENDBRANCH  28  29
ENDBRANCH  27  28
ENDBRANCH  25  27
ENDBRANCH  17  25
TORSDOF 9
