REMARK  Name = molecules/WVVSZNPYNCNODU-XTQGRXLLSA-N.pdb
REMARK                            x       y       z     vdW  Elec       q    Type
REMARK                         _______ _______ _______ _____ _____    ______ ____
ROOT
ATOM      1  C   UNK A  0        0.461  -2.663   0.566  0.00  0.00    +0.105 C 
ATOM      2  N   UNK A  0       -0.119  -1.613  -0.154  0.00  0.00    -0.297 NA
ATOM      3  C   UNK A  0       -1.136  -0.857   0.443  0.00  0.00    +0.091 C 
ATOM      4  C   UNK A  0       -2.371  -1.733   0.540  0.00  0.00    +0.061 C 
ATOM      5  C   UNK A  0       -3.555  -0.926   0.923  0.00  0.00    -0.020 A 
ATOM      6  C   UNK A  0       -4.794  -1.197   1.508  0.00  0.00    +0.087 A 
ATOM      7  N   UNK A  0       -5.498  -0.033   1.616  0.00  0.00    -0.360 N 
ATOM      8  H   UNK A  0       -6.460   0.104   2.010  0.00  0.00    +0.165 HD
ATOM      9  C   UNK A  0       -4.762   0.979   1.123  0.00  0.00    +0.047 A 
ATOM     10  C   UNK A  0       -4.905   2.352   0.952  0.00  0.00    +0.026 A 
ATOM     11  C   UNK A  0       -3.876   3.107   0.378  0.00  0.00    +0.003 A 
ATOM     12  C   UNK A  0       -2.680   2.526  -0.043  0.00  0.00    +0.009 A 
ATOM     13  C   UNK A  0       -2.572   1.167   0.140  0.00  0.00    -0.011 A 
ATOM     14  C   UNK A  0       -3.593   0.429   0.708  0.00  0.00    +0.010 A 
ATOM     15  C   UNK A  0       -1.367   0.409  -0.253  0.00  0.00    -0.025 C 
ATOM     16  C   UNK A  0       -0.608   0.914  -1.175  0.00  0.00    -0.007 C 
ATOM     17  C   UNK A  0        0.614   0.212  -1.615  0.00  0.00    +0.112 C 
ATOM     18  C   UNK A  0        0.388  -1.266  -1.399  0.00  0.00    +0.101 C 
ENDROOT
BRANCH  17  19
ATOM     19  C   UNK A  0        1.823   0.677  -0.924  0.00  0.00    +0.221 C 
ATOM     20  O   UNK A  0        1.723   1.574  -0.043  0.00  0.00    -0.275 OA
ATOM     21  N   ALA A  1        3.110   0.158  -1.205  0.00  0.00    -0.310 N 
ATOM     22  H   ALA A  1        3.177  -0.594  -1.946  0.00  0.00    +0.149 HD
BRANCH  21  23
ATOM     23  CA  ALA A  1        4.298   0.616  -0.525  0.00  0.00    +0.095 C 
ATOM     24  CB  ALA A  1        4.920  -0.510   0.236  0.00  0.00    +0.030 C 
BRANCH  23  25
ATOM     25  C   ALA A  1        5.276   1.239  -1.499  0.00  0.00    +0.177 C 
BRANCH  25  26
ATOM     26  O   ALA A  1        5.654   0.307  -2.458  0.00  0.00    -0.393 OA
ATOM     27  H   ALA A  1        6.066  -0.469  -2.011  0.00  0.00    +0.209 HD
ENDBRANCH  25  26
ENDBRANCH  23  25
ENDBRANCH  21  23
ENDBRANCH  17  19
TORSDOF 4
