REMARK  Name = molecules/WVYADZUPLLSGPU-UHFFFAOYSA-N.pdb
REMARK                            x       y       z     vdW  Elec       q    Type
REMARK                         _______ _______ _______ _____ _____    ______ ____
ROOT
ATOM      1  O   LIG    1       -0.336  -0.117  -0.786  0.00  0.00    -0.421 OA
ENDROOT
BRANCH   1   2
ATOM      2  C   LIG    1       -1.694  -0.348  -0.683  0.00  0.00    +0.146 A 
ATOM      3  C   LIG    1       -2.530   0.639  -0.205  0.00  0.00    +0.101 A 
ATOM      4  C   LIG    1       -3.885   0.407  -0.102  0.00  0.00    +0.018 A 
ATOM      5  C   LIG    1       -4.427  -0.817  -0.475  0.00  0.00    +0.001 A 
ATOM      6  C   LIG    1       -3.609  -1.817  -0.955  0.00  0.00    +0.004 A 
ATOM      7  C   LIG    1       -2.256  -1.567  -1.051  0.00  0.00    +0.047 A 
BRANCH   3   8
ATOM      8  C   LIG    1       -2.021   1.944   0.202  0.00  0.00    +0.340 C 
ATOM      9  O   LIG    1       -2.788   2.839   0.637  0.00  0.00    -0.245 OA
BRANCH   8  10
ATOM     10  O   LIG    1       -0.671   2.262   0.132  0.00  0.00    -0.477 OA
ATOM     11  H   LIG    1       -0.328   3.199   0.023  0.00  0.00    +0.295 HD
ENDBRANCH   8  10
ENDBRANCH   3   8
ENDBRANCH   1   2
BRANCH   1  12
ATOM     12  C   LIG    1        0.475  -0.421   0.297  0.00  0.00    +0.348 C 
ATOM     13  O   LIG    1       -0.071  -0.884   1.299  0.00  0.00    -0.244 OA
BRANCH  12  14
ATOM     14  C   LIG    1        1.915  -0.195   0.237  0.00  0.00    +0.101 A 
ATOM     15  C   LIG    1        2.766  -0.476   1.278  0.00  0.00    +0.131 A 
ATOM     16  C   LIG    1        4.147  -0.233   1.151  0.00  0.00    +0.046 A 
ATOM     17  C   LIG    1        4.606   0.283  -0.020  0.00  0.00    +0.004 A 
ATOM     18  C   LIG    1        3.780   0.580  -1.091  0.00  0.00    +0.001 A 
ATOM     19  C   LIG    1        2.438   0.342  -0.963  0.00  0.00    +0.018 A 
BRANCH  15  20
ATOM     20  O   LIG    1        2.315  -1.001   2.472  0.00  0.00    -0.506 OA
ATOM     21  H   LIG    1        1.429  -1.243   2.776  0.00  0.00    +0.292 HD
ENDBRANCH  15  20
ENDBRANCH  12  14
ENDBRANCH   1  12
TORSDOF 6
