REMARK  Name = molecules/WWGZXRYELYWJBD-UHFFFAOYSA-N.pdb
REMARK                            x       y       z     vdW  Elec       q    Type
REMARK                         _______ _______ _______ _____ _____    ______ ____
ROOT
ATOM      1  C   LIG    1        0.945  -0.429  -1.233  0.00  0.00    +0.247 C 
ATOM      2  N   LIG    1       -0.015   0.353  -0.558  0.00  0.00    -0.296 N 
ATOM      3  O   LIG    1        0.610  -1.284  -2.076  0.00  0.00    -0.270 OA
ENDROOT
BRANCH   1   4
ATOM      4  C   LIG    1        2.361  -0.263  -0.960  0.00  0.00    +0.045 A 
ATOM      5  C   LIG    1        2.926  -1.029   0.055  0.00  0.00    -0.006 A 
ATOM      6  C   LIG    1        2.141  -1.917   0.780  0.00  0.00    +0.009 A 
ATOM      7  C   LIG    1        2.722  -2.666   1.783  0.00  0.00    +0.001 A 
ATOM      8  C   LIG    1        4.064  -2.559   2.085  0.00  0.00    +0.001 A 
ATOM      9  C   LIG    1        4.839  -1.678   1.363  0.00  0.00    +0.008 A 
ATOM     10  C   LIG    1        4.258  -0.932   0.365  0.00  0.00    -0.017 A 
ATOM     11  C   LIG    1        5.026  -0.049  -0.359  0.00  0.00    +0.008 A 
ATOM     12  C   LIG    1        4.476   0.709  -1.359  0.00  0.00    +0.001 A 
ATOM     13  C   LIG    1        3.142   0.605  -1.663  0.00  0.00    +0.014 A 
ENDBRANCH   1   4
BRANCH   2  14
ATOM     14  C   LIG    1        0.265   1.391   0.399  0.00  0.00    +0.108 C 
BRANCH  14  15
ATOM     15  C   LIG    1        0.381   2.744  -0.290  0.00  0.00    +0.019 C 
BRANCH  15  16
ATOM     16  C   LIG    1        0.671   3.819   0.724  0.00  0.00    -0.002 C 
ATOM     17  C   LIG    1        0.780   5.166   0.074  0.00  0.00    +0.004 C 
ENDBRANCH  15  16
ENDBRANCH  14  15
ENDBRANCH   2  14
BRANCH   2  18
ATOM     18  C   LIG    1       -1.442   0.118  -0.857  0.00  0.00    +0.123 C 
BRANCH  18  19
ATOM     19  C   LIG    1       -1.894  -0.942   0.132  0.00  0.00    +0.103 C 
BRANCH  19  20
ATOM     20  N   LIG    1       -3.251  -1.313   0.023  0.00  0.00    -0.301 NA
BRANCH  20  21
ATOM     21  C   LIG    1       -4.197  -0.384   0.522  0.00  0.00    +0.081 C 
ATOM     22  C   LIG    1       -5.620  -0.764   0.425  0.00  0.00    +0.020 C 
ENDBRANCH  20  21
BRANCH  20  23
ATOM     23  C   LIG    1       -3.612  -2.020  -1.159  0.00  0.00    +0.081 C 
ATOM     24  C   LIG    1       -3.023  -3.406  -1.220  0.00  0.00    +0.020 C 
ENDBRANCH  20  23
ENDBRANCH  19  20
ENDBRANCH  18  19
ENDBRANCH   2  18
TORSDOF 9
