REMARK  Name = molecules/WWNUCVSRRUDYPP-UHFFFAOYSA-N.pdb
REMARK                            x       y       z     vdW  Elec       q    Type
REMARK                         _______ _______ _______ _____ _____    ______ ____
ROOT
ATOM      1  C   LIG    1       -0.081  -1.183   0.925  0.00  0.00    +0.167 A 
ATOM      2  N   LIG    1        1.039  -1.960   0.941  0.00  0.00    -0.333 N 
ATOM      3  H   LIG    1        1.063  -2.996   1.161  0.00  0.00    +0.168 HD
ATOM      4  C   LIG    1        2.079  -1.164   0.624  0.00  0.00    +0.067 A 
ATOM      5  C   LIG    1        3.411  -1.491   0.522  0.00  0.00    +0.031 A 
ATOM      6  C   LIG    1        4.272  -0.470   0.190  0.00  0.00    +0.048 A 
ATOM      7  C   LIG    1        3.878   0.818  -0.037  0.00  0.00    +0.123 A 
ATOM      8  C   LIG    1        2.517   1.103   0.077  0.00  0.00    +0.075 A 
ATOM      9  C   LIG    1        1.623   0.127   0.404  0.00  0.00    +0.093 A 
ATOM     10  N   LIG    1        0.276   0.057   0.605  0.00  0.00    -0.222 NA
ENDROOT
BRANCH   1  11
ATOM     11  S   LIG    1       -1.683  -1.874   1.311  0.00  0.00    -0.087 S 
BRANCH  11  12
ATOM     12  C   LIG    1       -2.481  -2.446  -0.193  0.00  0.00    +0.092 C 
BRANCH  12  13
ATOM     13  C   LIG    1       -2.862  -1.279  -1.056  0.00  0.00    +0.095 C 
BRANCH  13  14
ATOM     14  N   LIG    1       -3.781  -0.361  -0.533  0.00  0.00    -0.297 NA
ATOM     15  C   LIG    1       -3.364   0.487   0.509  0.00  0.00    +0.112 C 
ATOM     16  C   LIG    1       -4.423   1.557   0.810  0.00  0.00    +0.175 C 
ATOM     17  O   LIG    1       -5.668   0.963   1.001  0.00  0.00    -0.377 OA
ATOM     18  C   LIG    1       -6.027   0.331  -0.173  0.00  0.00    +0.175 C 
ATOM     19  C   LIG    1       -5.132  -0.872  -0.360  0.00  0.00    +0.112 C 
ENDBRANCH  13  14
ENDBRANCH  12  13
ENDBRANCH  11  12
ENDBRANCH   1  11
BRANCH   7  20
ATOM     20  O   LIG    1        4.773   1.842  -0.374  0.00  0.00    -0.492 OA
BRANCH  20  21
ATOM     21  C   LIG    1        6.141   1.503  -0.474  0.00  0.00    +0.225 C 
ATOM     22  C   LIG    1        6.985   2.700  -0.841  0.00  0.00    +0.048 C 
ENDBRANCH  20  21
ENDBRANCH   7  20
TORSDOF 6
