REMARK  Name = molecules/WWYNJERNGUHSAO-XUDSTZEESA-N.pdb
REMARK                            x       y       z     vdW  Elec       q    Type
REMARK                         _______ _______ _______ _____ _____    ______ ____
ROOT
ATOM      1  C   LIG    1        2.985   0.780   1.391  0.00  0.00    +0.016 C 
ATOM      2  C   LIG    1        4.336   1.389   0.996  0.00  0.00    +0.079 C 
ATOM      3  C   LIG    1        5.088   0.352   0.251  0.00  0.00    +0.156 C 
ATOM      4  O   LIG    1        6.329   0.222   0.417  0.00  0.00    -0.293 OA
ATOM      5  C   LIG    1        4.363  -0.512  -0.675  0.00  0.00    +0.045 C 
ATOM      6  C   LIG    1        3.058  -0.466  -0.748  0.00  0.00    -0.063 C 
ATOM      7  C   LIG    1        2.334  -1.347  -1.677  0.00  0.00    +0.031 C 
ATOM      8  C   LIG    1        0.982  -0.876  -2.085  0.00  0.00    +0.008 C 
ATOM      9  C   LIG    1        0.240  -0.052  -1.076  0.00  0.00    -0.003 C 
ATOM     10  C   LIG    1        0.931  -0.158   0.254  0.00  0.00    -0.000 C 
ATOM     11  C   LIG    1        0.165   0.420   1.394  0.00  0.00    +0.005 C 
ATOM     12  C   LIG    1       -1.248  -0.114   1.464  0.00  0.00    +0.011 C 
ATOM     13  C   LIG    1       -1.921   0.137   0.160  0.00  0.00    +0.014 C 
ATOM     14  C   LIG    1       -3.249  -0.586   0.022  0.00  0.00    +0.132 C 
ATOM     15  C   LIG    1       -3.446  -0.517  -1.493  0.00  0.00    +0.049 C 
ATOM     16  C   LIG    1       -2.040  -0.449  -2.091  0.00  0.00    +0.008 C 
ATOM     17  C   LIG    1       -1.135  -0.600  -0.920  0.00  0.00    +0.002 C 
ATOM     18  C   LIG    1        2.282   0.463   0.104  0.00  0.00    +0.019 C 
ENDROOT
BRANCH  14  19
ATOM     19  O   LIG    1       -4.272  -0.007   0.714  0.00  0.00    -0.376 OA
ATOM     20  H   LIG    1       -4.672  -0.703   1.326  0.00  0.00    +0.211 HD
ENDBRANCH  14  19
BRANCH  14  21
ATOM     21  C   LIG    1       -3.010  -1.978   0.416  0.00  0.00    -0.070 C 
ATOM     22  C   LIG    1       -2.795  -3.121   0.735  0.00  0.00    +0.007 C 
ENDBRANCH  14  21
BRANCH  13  23
ATOM     23  C   LIG    1       -2.056   1.601  -0.172  0.00  0.00    +0.007 C 
ATOM     24  C   LIG    1       -2.861   2.302   0.871  0.00  0.00    +0.004 C 
ENDBRANCH  13  23
TORSDOF 3
