REMARK  Name = molecules/WWZKQHOCKIZLMA-UHFFFAOYSA-N.pdb
REMARK                            x       y       z     vdW  Elec       q    Type
REMARK                         _______ _______ _______ _____ _____    ______ ____
ROOT
ATOM      1  C   LIG    1        1.969   1.146   0.640  0.00  0.00    +0.011 C 
ENDROOT
BRANCH   1   2
ATOM      2  C   LIG    1        0.560   1.225   0.255  0.00  0.00    +0.001 C 
BRANCH   2   3
ATOM      3  C   LIG    1       -0.255   0.012   0.074  0.00  0.00    +0.000 C 
BRANCH   3   4
ATOM      4  C   LIG    1       -1.722   0.388  -0.289  0.00  0.00    -0.000 C 
BRANCH   4   6
ATOM      5  C   LIG    1       -3.943  -0.486  -0.804  0.00  0.00    +0.004 C 
ATOM      6  C   LIG    1       -2.522  -0.882  -0.446  0.00  0.00    -0.003 C 
ENDBRANCH   4   6
ENDBRANCH   3   4
ENDBRANCH   2   3
ENDBRANCH   1   2
BRANCH   1   7
ATOM      7  C   LIG    1        2.945   0.427  -0.194  0.00  0.00    +0.120 C 
BRANCH   7   8
ATOM      8  C   LIG    1        2.803  -1.023  -0.327  0.00  0.00    +0.305 C 
ATOM      9  O   LIG    1        2.028  -1.698   0.372  0.00  0.00    -0.251 OA
BRANCH   8  10
ATOM     10  O   LIG    1        3.558  -1.735  -1.277  0.00  0.00    -0.481 OA
ATOM     11  H   LIG    1        4.328  -2.312  -0.916  0.00  0.00    +0.295 HD
ENDBRANCH   8  10
ENDBRANCH   7   8
ENDBRANCH   1   7
TORSDOF 7
