REMARK  Name = molecules/WXCXUHSOUPDCQV-UHFFFAOYSA-N.pdb
REMARK                            x       y       z     vdW  Elec       q    Type
REMARK                         _______ _______ _______ _____ _____    ______ ____
ROOT
ATOM      1  S   LIG    1       -0.982   0.760   1.924  0.00  0.00    -0.017 S 
ATOM      2  C   LIG    1       -0.870   0.322   0.367  0.00  0.00    +0.152 C 
ATOM      3  N   LIG    1        0.329  -0.112  -0.296  0.00  0.00    -0.268 N 
ATOM      4  C   LIG    1       -0.117  -0.856  -1.464  0.00  0.00    +0.112 C 
ATOM      5  C   LIG    1       -0.550  -2.228  -0.967  0.00  0.00    +0.042 C 
ATOM      6  C   LIG    1       -1.372  -0.135  -1.780  0.00  0.00    +0.249 C 
ATOM      7  O   LIG    1       -1.806   0.024  -2.938  0.00  0.00    -0.272 OA
ATOM      8  C   LIG    1        0.868  -0.916  -2.574  0.00  0.00    +0.042 C 
ATOM      9  N   LIG    1       -1.941   0.310  -0.556  0.00  0.00    -0.220 N 
ENDROOT
BRANCH   3  10
ATOM     10  C   LIG    1        1.678   0.086   0.059  0.00  0.00    +0.039 A 
ATOM     11  C   LIG    1        2.415  -0.793   0.813  0.00  0.00    +0.062 A 
ATOM     12  C   LIG    1        3.733  -0.566   1.153  0.00  0.00    +0.137 A 
ATOM     13  F   LIG    1        4.362  -1.497   1.899  0.00  0.00    -0.205 F 
ATOM     14  C   LIG    1        4.402   0.557   0.761  0.00  0.00    +0.072 A 
ATOM     15  C   LIG    1        3.662   1.467  -0.011  0.00  0.00    +0.018 A 
ATOM     16  C   LIG    1        2.352   1.227  -0.342  0.00  0.00    +0.024 A 
BRANCH  14  17
ATOM     17  C   LIG    1        5.778   0.881   1.061  0.00  0.00    +0.247 C 
ATOM     18  N   LIG    1        6.659   0.006   1.707  0.00  0.00    -0.314 N 
ATOM     19  H   LIG    1        6.443  -0.947   2.035  0.00  0.00    +0.149 HD
ATOM     20  C   LIG    1        8.036   0.438   1.963  0.00  0.00    +0.128 C 
ATOM     21  O   LIG    1        6.239   2.015   0.732  0.00  0.00    -0.270 OA
ENDBRANCH  14  17
ENDBRANCH   3  10
BRANCH   9  22
ATOM     22  C   LIG    1       -3.292   0.666  -0.285  0.00  0.00    +0.044 A 
ATOM     23  C   LIG    1       -3.720   1.954  -0.052  0.00  0.00    +0.025 A 
ATOM     24  C   LIG    1       -5.054   2.256   0.215  0.00  0.00    +0.021 A 
ATOM     25  C   LIG    1       -5.987   1.236   0.247  0.00  0.00    +0.064 A 
ATOM     26  C   LIG    1       -5.593  -0.064   0.018  0.00  0.00    +0.074 A 
ATOM     27  C   LIG    1       -4.281  -0.321  -0.239  0.00  0.00    +0.037 A 
BRANCH  26  28
ATOM     28  C   LIG    1       -6.644  -1.115   0.071  0.00  0.00    +0.419 C 
ATOM     29  F   LIG    1       -7.082  -1.148   1.406  0.00  0.00    -0.166 F 
ATOM     30  F   LIG    1       -6.120  -2.368  -0.188  0.00  0.00    -0.166 F 
ATOM     31  F   LIG    1       -7.727  -0.790  -0.691  0.00  0.00    -0.166 F 
ENDBRANCH  26  28
BRANCH  25  32
ATOM     32  C   LIG    1       -7.375   1.533   0.523  0.00  0.00    +0.100 C 
ATOM     33  N   LIG    1       -8.469   1.782   0.725  0.00  0.00    -0.191 NA
ENDBRANCH  25  32
ENDBRANCH   9  22
TORSDOF 5
