REMARK  Name = molecules/WXFIGDLSSYIKKV-RCOVLWMOSA-N.pdb
REMARK                            x       y       z     vdW  Elec       q    Type
REMARK                         _______ _______ _______ _____ _____    ______ ____
ROOT
ATOM      1  C   LIG    1       -0.870  -0.378   0.919  0.00  0.00    +0.161 C 
ENDROOT
BRANCH   1   2
ATOM      2  C   LIG    1        0.515  -0.403   0.402  0.00  0.00    -0.014 A 
ATOM      3  C   LIG    1        1.242  -1.573   0.302  0.00  0.00    +0.006 A 
ATOM      4  C   LIG    1        2.533  -1.621  -0.176  0.00  0.00    +0.004 A 
ATOM      5  C   LIG    1        3.149  -0.477  -0.577  0.00  0.00    +0.045 A 
ATOM      6  C   LIG    1        2.446   0.721  -0.491  0.00  0.00    +0.117 A 
ATOM      7  C   LIG    1        1.153   0.755  -0.010  0.00  0.00    +0.051 A 
BRANCH   6   8
ATOM      8  O   LIG    1        3.073   1.869  -0.898  0.00  0.00    -0.507 OA
ATOM      9  H   LIG    1        2.656   2.784  -0.876  0.00  0.00    +0.292 HD
ENDBRANCH   6   8
ENDBRANCH   1   2
BRANCH   1  10
ATOM     10  O   LIG    1       -1.094   0.649   1.824  0.00  0.00    -0.386 OA
ATOM     11  H   LIG    1       -0.808   1.533   1.495  0.00  0.00    +0.210 HD
ENDBRANCH   1  10
BRANCH   1  12
ATOM     12  C   LIG    1       -1.909  -0.388  -0.159  0.00  0.00    +0.081 C 
ATOM     13  C   LIG    1       -1.998   0.864  -0.952  0.00  0.00    +0.026 C 
BRANCH  12  14
ATOM     14  N   LIG    1       -3.207  -0.578   0.511  0.00  0.00    -0.325 NA
ATOM     15  H   LIG    1       -3.094  -1.236   1.318  0.00  0.00    +0.119 HD
ATOM     16  H   LIG    1       -3.545   0.373   0.849  0.00  0.00    +0.119 HD
ENDBRANCH  12  14
ENDBRANCH   1  12
TORSDOF 5
