REMARK  Name = molecules/WXTMDXOMEHJXQO-UHFFFAOYSA-N.pdb
REMARK                            x       y       z     vdW  Elec       q    Type
REMARK                         _______ _______ _______ _____ _____    ______ ____
ROOT
ATOM      1  C   LIG    1       -0.809   0.119  -0.039  0.00  0.00    +0.104 A 
ATOM      2  C   LIG    1       -0.116   1.274   0.147  0.00  0.00    +0.131 A 
ATOM      3  C   LIG    1        1.262   1.235   0.197  0.00  0.00    +0.050 A 
ATOM      4  C   LIG    1        1.947   0.044   0.060  0.00  0.00    +0.049 A 
ATOM      5  C   LIG    1        1.268  -1.142  -0.129  0.00  0.00    +0.118 A 
ATOM      6  C   LIG    1       -0.108  -1.066  -0.174  0.00  0.00    +0.064 A 
ENDROOT
BRANCH   1   7
ATOM      7  C   LIG    1       -2.265   0.166  -0.090  0.00  0.00    +0.340 C 
ATOM      8  O   LIG    1       -2.882   1.251   0.035  0.00  0.00    -0.245 OA
BRANCH   7   9
ATOM      9  O   LIG    1       -2.964  -0.998  -0.277  0.00  0.00    -0.477 OA
ATOM     10  H   LIG    1       -2.658  -1.748  -0.889  0.00  0.00    +0.295 HD
ENDBRANCH   7   9
ENDBRANCH   1   7
BRANCH   2  11
ATOM     11  O   LIG    1       -0.740   2.525   0.294  0.00  0.00    -0.506 OA
ATOM     12  H   LIG    1       -0.207   3.371   0.432  0.00  0.00    +0.292 HD
ENDBRANCH   2  11
BRANCH   5  13
ATOM     13  O   LIG    1        1.949  -2.349  -0.268  0.00  0.00    -0.507 OA
ATOM     14  H   LIG    1        2.139  -2.872   0.577  0.00  0.00    +0.292 HD
ENDBRANCH   5  13
TORSDOF 4
