REMARK  Name = molecules/WYMSBXTXOHUIGT-UHFFFAOYSA-N.pdb
REMARK                            x       y       z     vdW  Elec       q    Type
REMARK                         _______ _______ _______ _____ _____    ______ ____
ROOT
ATOM      1  O   LIG    1        0.109  -0.115  -1.360  0.00  0.00    -0.404 OA
ENDROOT
BRANCH   1   2
ATOM      2  C   LIG    1        1.365  -0.032  -0.797  0.00  0.00    +0.132 A 
ATOM      3  C   LIG    1        2.093  -1.152  -0.474  0.00  0.00    +0.048 A 
ATOM      4  C   LIG    1        3.355  -1.103   0.091  0.00  0.00    +0.036 A 
ATOM      5  C   LIG    1        3.892   0.144   0.336  0.00  0.00    +0.126 A 
ATOM      6  C   LIG    1        3.206   1.289   0.032  0.00  0.00    +0.036 A 
ATOM      7  C   LIG    1        1.939   1.208  -0.536  0.00  0.00    +0.048 A 
BRANCH   5   8
ATOM      8  N   LIG    1        5.188   0.229   0.917  0.00  0.00    +0.056 N 
ATOM      9  O   LIG    1        5.840  -0.794   1.206  0.00  0.00    -0.126 OA
ATOM     10  O   LIG    1        5.771   1.445   1.182  0.00  0.00    -0.126 OA
ENDBRANCH   5   8
ENDBRANCH   1   2
BRANCH   1  11
ATOM     11  P   LIG    1       -1.329  -0.175  -0.420  0.00  0.00    +0.533 P 
ATOM     12  O   LIG    1       -0.919   0.001   1.021  0.00  0.00    -0.215 OA
BRANCH  11  13
ATOM     13  O   LIG    1       -2.084  -1.666  -0.577  0.00  0.00    -0.277 OA
BRANCH  13  14
ATOM     14  C   LIG    1       -2.294  -2.247   0.661  0.00  0.00    +0.170 C 
ATOM     15  C   LIG    1       -2.964  -3.577   0.590  0.00  0.00    +0.035 C 
ENDBRANCH  13  14
ENDBRANCH  11  13
BRANCH  11  16
ATOM     16  O   LIG    1       -2.347   1.091  -0.937  0.00  0.00    -0.277 OA
BRANCH  16  17
ATOM     17  C   LIG    1       -2.109   2.170  -0.112  0.00  0.00    +0.170 C 
ATOM     18  C   LIG    1       -2.937   3.376  -0.443  0.00  0.00    +0.035 C 
ENDBRANCH  16  17
ENDBRANCH  11  16
ENDBRANCH   1  11
TORSDOF 7
