REMARK  Name = molecules/WYQFJHHDOKWSHR-MNOVXSKESA-N.pdb
REMARK                            x       y       z     vdW  Elec       q    Type
REMARK                         _______ _______ _______ _____ _____    ______ ____
ROOT
ATOM      1  C   LIG    1        1.164   0.494   1.556  0.00  0.00    +0.113 C 
ATOM      2  C   LIG    1        0.148   1.594   0.964  0.00  0.00    +0.017 C 
ATOM      3  C   LIG    1       -0.777   0.553   0.432  0.00  0.00    +0.060 C 
ATOM      4  C   LIG    1        0.155  -0.133  -0.533  0.00  0.00    +0.119 C 
ATOM      5  N   LIG    1        1.387  -0.181   0.277  0.00  0.00    -0.285 N 
ATOM      6  C   LIG    1        2.610  -0.787  -0.113  0.00  0.00    +0.302 C 
ATOM      7  N   LIG    1        3.726  -0.770   0.750  0.00  0.00    -0.291 N 
ATOM      8  H   LIG    1        3.635  -0.297   1.710  0.00  0.00    +0.151 HD
ATOM      9  O   LIG    1        2.716  -1.346  -1.232  0.00  0.00    -0.253 OA
ENDROOT
BRANCH   3  10
ATOM     10  C   LIG    1       -2.110   0.852   0.035  0.00  0.00    +0.049 A 
ATOM     11  N   LIG    1       -3.175  -0.010  -0.010  0.00  0.00    -0.292 N 
ATOM     12  C   LIG    1       -3.286  -1.335   0.260  0.00  0.00    +0.092 A 
ATOM     13  C   LIG    1       -2.372  -2.272   0.670  0.00  0.00    +0.047 A 
ATOM     14  C   LIG    1       -3.083  -3.467   0.779  0.00  0.00    +0.086 A 
ATOM     15  N   LIG    1       -4.359  -3.262   0.451  0.00  0.00    -0.345 N 
ATOM     16  H   LIG    1       -5.163  -3.948   0.426  0.00  0.00    +0.167 HD
ATOM     17  C   LIG    1       -4.533  -1.962   0.123  0.00  0.00    +0.155 A 
ATOM     18  N   LIG    1       -5.606  -1.252  -0.273  0.00  0.00    -0.232 NA
ATOM     19  C   LIG    1       -5.506   0.054  -0.541  0.00  0.00    +0.159 A 
ATOM     20  C   LIG    1       -4.284   0.682  -0.410  0.00  0.00    +0.157 A 
ATOM     21  N   LIG    1       -3.912   1.969  -0.613  0.00  0.00    -0.234 NA
ATOM     22  C   LIG    1       -2.607   2.085  -0.348  0.00  0.00    +0.135 A 
ENDBRANCH   3  10
BRANCH   2  23
ATOM     23  C   LIG    1        1.092   2.262   0.013  0.00  0.00    +0.002 C 
ATOM     24  C   LIG    1        0.576   3.405  -0.791  0.00  0.00    +0.004 C 
ENDBRANCH   2  23
BRANCH   7  25
ATOM     25  C   LIG    1        4.995  -1.349   0.431  0.00  0.00    +0.218 C 
BRANCH  25  26
ATOM     26  C   LIG    1        5.678  -0.749  -0.744  0.00  0.00    +0.405 C 
ATOM     27  F   LIG    1        5.906   0.616  -0.531  0.00  0.00    -0.169 F 
ATOM     28  F   LIG    1        6.958  -1.343  -0.823  0.00  0.00    -0.169 F 
ATOM     29  F   LIG    1        5.057  -0.926  -1.940  0.00  0.00    -0.169 F 
ENDBRANCH  25  26
ENDBRANCH   7  25
TORSDOF 4
