REMARK  Name = molecules/WYQPLTPSGFELIB-JTQPXKBDSA-N.pdb
REMARK                            x       y       z     vdW  Elec       q    Type
REMARK                         _______ _______ _______ _____ _____    ______ ____
ROOT
ATOM      1  C   LIG    1        1.667  -0.622  -0.392  0.00  0.00    +0.180 C 
ATOM      2  C   LIG    1        0.190  -0.967  -0.159  0.00  0.00    +0.021 C 
ATOM      3  C   LIG    1       -0.237  -0.660   1.226  0.00  0.00    +0.045 C 
ATOM      4  C   LIG    1       -1.700  -0.445   1.394  0.00  0.00    +0.154 C 
ATOM      5  C   LIG    1       -2.338   0.437   0.381  0.00  0.00    +0.153 C 
ATOM      6  F   LIG    1       -1.835   1.714   0.570  0.00  0.00    -0.238 F 
ATOM      7  C   LIG    1       -3.835   0.518   0.504  0.00  0.00    +0.047 C 
ATOM      8  C   LIG    1       -4.240   1.230   1.696  0.00  0.00    -0.009 C 
ATOM      9  C   LIG    1       -5.059   2.255   1.755  0.00  0.00    +0.047 C 
ATOM     10  C   LIG    1       -5.647   2.777   0.535  0.00  0.00    +0.179 C 
ATOM     11  O   LIG    1       -6.431   3.748   0.562  0.00  0.00    -0.288 OA
ATOM     12  C   LIG    1       -5.252   2.085  -0.691  0.00  0.00    +0.054 C 
ATOM     13  C   LIG    1       -4.463  -0.877   0.639  0.00  0.00    +0.023 C 
ATOM     14  C   LIG    1       -4.441   1.079  -0.711  0.00  0.00    -0.020 C 
ATOM     15  C   LIG    1       -4.030   0.464  -2.043  0.00  0.00    +0.194 C 
ATOM     16  C   LIG    1       -2.549   0.742  -2.135  0.00  0.00    +0.048 C 
ATOM     17  F   LIG    1       -4.772   0.941  -3.063  0.00  0.00    -0.241 F 
ATOM     18  C   LIG    1       -1.894  -0.002  -0.994  0.00  0.00    +0.037 C 
ATOM     19  C   LIG    1       -0.033  -2.350  -0.641  0.00  0.00    +0.016 C 
ATOM     20  C   LIG    1       -0.417   0.099  -1.034  0.00  0.00    +0.006 C 
ATOM     21  C   LIG    1        0.248  -0.148  -2.330  0.00  0.00    +0.009 C 
ATOM     22  C   LIG    1        1.688  -0.438  -1.916  0.00  0.00    +0.057 C 
ENDROOT
BRANCH   1  23
ATOM     23  C   LIG    1        2.592  -1.687   0.024  0.00  0.00    +0.214 C 
ATOM     24  O   LIG    1        2.528  -2.768  -0.601  0.00  0.00    -0.289 OA
BRANCH  23  25
ATOM     25  C   LIG    1        3.577  -1.608   1.103  0.00  0.00    +0.310 C 
BRANCH  25  26
ATOM     26  O   LIG    1        4.293  -2.843   1.224  0.00  0.00    -0.457 OA
BRANCH  26  27
ATOM     27  C   LIG    1        3.604  -4.004   1.521  0.00  0.00    +0.304 C 
ATOM     28  O   LIG    1        2.360  -4.049   1.696  0.00  0.00    -0.251 OA
ATOM     29  C   LIG    1        4.312  -5.325   1.657  0.00  0.00    +0.136 C 
ENDBRANCH  26  27
ENDBRANCH  25  26
ENDBRANCH  23  25
ENDBRANCH   1  23
BRANCH   4  30
ATOM     30  O   LIG    1       -2.272  -1.707   1.530  0.00  0.00    -0.389 OA
ATOM     31  H   LIG    1       -1.655  -2.454   1.530  0.00  0.00    +0.210 HD
ENDBRANCH   4  30
BRANCH   1  32
ATOM     32  O   LIG    1        1.931   0.639   0.178  0.00  0.00    -0.450 OA
BRANCH  32  33
ATOM     33  C   LIG    1        3.045   1.405  -0.004  0.00  0.00    +0.308 C 
ATOM     34  O   LIG    1        3.960   1.002  -0.763  0.00  0.00    -0.251 OA
BRANCH  33  35
ATOM     35  C   LIG    1        3.257   2.723   0.652  0.00  0.00    +0.120 C 
BRANCH  35  36
ATOM     36  C   LIG    1        4.590   3.298   0.222  0.00  0.00    +0.008 C 
ATOM     37  C   LIG    1        4.869   4.626   0.850  0.00  0.00    +0.004 C 
ENDBRANCH  35  36
ENDBRANCH  33  35
ENDBRANCH  32  33
ENDBRANCH   1  32
TORSDOF 9
