REMARK  Name = molecules/WYRWAVVTDKZRIJ-MRXNPFEDSA-N.pdb
REMARK                            x       y       z     vdW  Elec       q    Type
REMARK                         _______ _______ _______ _____ _____    ______ ____
ROOT
ATOM      1  C   LIG    1       -3.025  -2.710   0.343  0.00  0.00    +0.103 C 
ATOM      2  C   LIG    1       -2.334  -1.589   0.730  0.00  0.00    +0.044 C 
ATOM      3  C   LIG    1       -2.571  -0.311   0.210  0.00  0.00    +0.103 C 
ATOM      4  N   LIG    1       -1.808   0.810   0.644  0.00  0.00    -0.271 NA
ATOM      5  C   LIG    1       -1.954   2.141   0.168  0.00  0.00    +0.100 C 
ATOM      6  C   LIG    1       -1.171   3.182   0.651  0.00  0.00    +0.003 C 
ATOM      7  C   LIG    1       -1.300   4.471   0.209  0.00  0.00    -0.002 C 
ATOM      8  C   LIG    1       -2.224   4.801  -0.749  0.00  0.00    +0.001 C 
ATOM      9  C   LIG    1       -3.000   3.790  -1.232  0.00  0.00    +0.013 C 
ATOM     10  C   LIG    1       -2.876   2.502  -0.794  0.00  0.00    +0.017 C 
ATOM     11  S   LIG    1       -3.969   1.302  -1.509  0.00  0.00    -0.094 S 
ATOM     12  C   LIG    1       -3.572  -0.254  -0.746  0.00  0.00    +0.014 C 
ATOM     13  C   LIG    1       -4.293  -1.341  -1.171  0.00  0.00    -0.002 C 
ATOM     14  C   LIG    1       -4.012  -2.571  -0.619  0.00  0.00    +0.092 C 
ENDROOT
BRANCH   1  16
ATOM     15  C   LIG    1       -3.428  -5.055   0.511  0.00  0.00    +0.276 C 
ATOM     16  O   LIG    1       -2.690  -3.912   0.938  0.00  0.00    -0.499 OA
ENDBRANCH   1  16
BRANCH   4  17
ATOM     17  C   LIG    1       -0.786   0.536   1.623  0.00  0.00    +0.091 C 
BRANCH  17  18
ATOM     18  C   LIG    1        0.538   0.123   1.050  0.00  0.00    +0.014 C 
ATOM     19  C   LIG    1        1.558  -0.139   2.167  0.00  0.00    +0.010 C 
BRANCH  18  20
ATOM     20  C   LIG    1        1.156   1.033   0.041  0.00  0.00    +0.089 C 
BRANCH  20  21
ATOM     21  N   LIG    1        2.383   0.442  -0.389  0.00  0.00    -0.302 NA
ATOM     22  C   LIG    1        3.477   1.326  -0.578  0.00  0.00    +0.087 C 
ATOM     23  C   LIG    1        4.647   0.515  -1.101  0.00  0.00    +0.046 C 
ATOM     24  C   LIG    1        4.701  -0.864  -0.492  0.00  0.00    +0.117 C 
ATOM     25  C   LIG    1        3.446  -1.654  -0.648  0.00  0.00    +0.046 C 
ATOM     26  C   LIG    1        2.349  -0.717  -1.171  0.00  0.00    +0.087 C 
BRANCH  24  27
ATOM     27  O   LIG    1        5.142  -0.794   0.846  0.00  0.00    -0.392 OA
ATOM     28  H   LIG    1        5.346  -1.674   1.196  0.00  0.00    +0.210 HD
ENDBRANCH  24  27
ENDBRANCH  20  21
ENDBRANCH  18  20
ENDBRANCH  17  18
ENDBRANCH   4  17
TORSDOF 6
