REMARK  Name = molecules/WYWZRNAHINYAEF-AWEZNQCLSA-N.pdb
REMARK                            x       y       z     vdW  Elec       q    Type
REMARK                         _______ _______ _______ _____ _____    ______ ____
ROOT
ATOM      1  C   LIG    1       -0.799   0.984  -1.451  0.00  0.00    +0.339 C 
ATOM      2  O   LIG    1       -0.783   1.637  -2.526  0.00  0.00    -0.245 OA
ENDROOT
BRANCH   1   3
ATOM      3  C   LIG    1       -2.067   0.572  -0.887  0.00  0.00    +0.059 A 
ATOM      4  C   LIG    1       -2.197  -0.111   0.288  0.00  0.00    +0.017 A 
ATOM      5  C   LIG    1       -3.447  -0.458   0.761  0.00  0.00    +0.024 A 
ATOM      6  C   LIG    1       -4.609  -0.150   0.103  0.00  0.00    +0.029 A 
ATOM      7  C   LIG    1       -4.470   0.542  -1.087  0.00  0.00    +0.024 A 
ATOM      8  C   LIG    1       -3.235   0.898  -1.577  0.00  0.00    +0.017 A 
BRANCH   6   9
ATOM      9  N   LIG    1       -5.880  -0.518   0.593  0.00  0.00    -0.336 N 
ATOM     10  C   LIG    1       -6.761   0.414   1.276  0.00  0.00    +0.129 C 
ATOM     11  C   LIG    1       -6.320  -1.892   0.387  0.00  0.00    +0.129 C 
ENDBRANCH   6   9
ENDBRANCH   1   3
BRANCH   1  12
ATOM     12  O   LIG    1        0.444   0.714  -0.894  0.00  0.00    -0.461 OA
BRANCH  12  13
ATOM     13  C   LIG    1        1.637   1.154  -1.496  0.00  0.00    +0.236 C 
BRANCH  13  14
ATOM     14  C   LIG    1        2.893   0.768  -0.789  0.00  0.00    +0.026 C 
BRANCH  14  15
ATOM     15  C   LIG    1        3.009   1.449   0.515  0.00  0.00    +0.003 C 
ATOM     16  C   LIG    1        1.980   1.210   1.541  0.00  0.00    +0.004 C 
ENDBRANCH  14  15
BRANCH  14  17
ATOM     17  C   LIG    1        2.986  -0.728  -0.719  0.00  0.00    +0.007 C 
BRANCH  17  18
ATOM     18  C   LIG    1        4.207  -1.241  -0.032  0.00  0.00    +0.000 C 
BRANCH  18  19
ATOM     19  C   LIG    1        5.500  -0.837  -0.658  0.00  0.00    -0.003 C 
ATOM     20  C   LIG    1        6.666  -1.405   0.123  0.00  0.00    +0.004 C 
ENDBRANCH  18  19
ENDBRANCH  17  18
ENDBRANCH  14  17
ENDBRANCH  13  14
ENDBRANCH  12  13
ENDBRANCH   1  12
TORSDOF 9
