REMARK  Name = molecules/WZHCOOQXZCIUNC-AEGPPILISA-N.pdb
REMARK                            x       y       z     vdW  Elec       q    Type
REMARK                         _______ _______ _______ _____ _____    ______ ____
ROOT
ATOM      1  C   LIG    1        1.524   1.019   0.424  0.00  0.00    +0.341 C 
ATOM      2  O   LIG    1        1.275   1.058   1.655  0.00  0.00    -0.248 OA
ENDROOT
BRANCH   1   3
ATOM      3  O   LIG    1        0.443   0.744  -0.409  0.00  0.00    -0.459 OA
BRANCH   3   4
ATOM      4  C   LIG    1       -0.862   0.517   0.037  0.00  0.00    +0.177 C 
ATOM      5  C   LIG    1       -1.342  -0.843  -0.413  0.00  0.00    +0.051 C 
ATOM      6  C   LIG    1       -2.784  -1.083  -0.116  0.00  0.00    -0.031 C 
ATOM      7  C   LIG    1       -2.998  -1.413   1.341  0.00  0.00    +0.011 C 
ATOM      8  C   LIG    1       -3.695   0.030  -0.510  0.00  0.00    +0.010 C 
ATOM      9  C   LIG    1       -3.196   1.393  -0.181  0.00  0.00    -0.010 C 
ATOM     10  C   LIG    1       -3.471   1.801   1.249  0.00  0.00    +0.007 C 
ATOM     11  C   LIG    1       -3.216  -2.310  -0.922  0.00  0.00    +0.011 C 
ATOM     12  C   LIG    1       -1.751   1.579  -0.570  0.00  0.00    +0.048 C 
ENDBRANCH   3   4
ENDBRANCH   1   3
BRANCH   1  13
ATOM     13  C   LIG    1        2.885   1.256  -0.043  0.00  0.00    +0.253 C 
BRANCH  13  14
ATOM     14  C   LIG    1        3.908   0.333   0.479  0.00  0.00    -0.008 A 
ATOM     15  C   LIG    1        3.712  -0.605   1.458  0.00  0.00    +0.007 A 
ATOM     16  C   LIG    1        4.745  -1.441   1.895  0.00  0.00    +0.000 A 
ATOM     17  C   LIG    1        6.005  -1.331   1.336  0.00  0.00    +0.000 A 
ATOM     18  C   LIG    1        6.217  -0.390   0.349  0.00  0.00    +0.000 A 
ATOM     19  C   LIG    1        5.178   0.426  -0.067  0.00  0.00    +0.007 A 
ENDBRANCH  13  14
BRANCH  13  20
ATOM     20  O   LIG    1        2.982   1.225  -1.449  0.00  0.00    -0.376 OA
ATOM     21  H   LIG    1        2.646   2.108  -1.754  0.00  0.00    +0.211 HD
ENDBRANCH  13  20
ENDBRANCH   1  13
TORSDOF 5
