REMARK  Name = molecules/WZHJKEUHNJHDLS-QTGUNEKASA-N.pdb
REMARK                            x       y       z     vdW  Elec       q    Type
REMARK                         _______ _______ _______ _____ _____    ______ ____
ROOT
ATOM      1  C   LIG    1       -3.954   2.265  -0.186  0.00  0.00    +0.056 C 
ATOM      2  C   LIG    1       -4.735   1.048   0.268  0.00  0.00    -0.020 A 
ATOM      3  C   LIG    1       -4.061  -0.004   0.840  0.00  0.00    +0.007 A 
ATOM      4  C   LIG    1       -4.924  -1.009   1.159  0.00  0.00    +0.049 A 
ATOM      5  C   LIG    1       -4.393  -2.142   1.745  0.00  0.00    +0.026 A 
ATOM      6  C   LIG    1       -3.021  -2.203   1.980  0.00  0.00    +0.002 A 
ATOM      7  C   LIG    1       -2.175  -1.153   1.639  0.00  0.00    +0.004 A 
ATOM      8  N   LIG    1       -6.159  -0.591   0.787  0.00  0.00    -0.349 N 
ATOM      9  C   LIG    1       -7.371  -1.358   0.938  0.00  0.00    +0.149 C 
ATOM     10  C   LIG    1       -2.686  -0.038   1.062  0.00  0.00    -0.033 A 
ATOM     11  C   LIG    1       -1.944   1.175   0.636  0.00  0.00    +0.037 C 
ATOM     12  C   LIG    1       -0.458   1.043   0.560  0.00  0.00    +0.016 C 
ATOM     13  C   LIG    1        0.195   1.265  -0.748  0.00  0.00    +0.021 C 
ATOM     14  C   LIG    1       -0.724   1.643  -1.882  0.00  0.00    +0.089 C 
ATOM     15  N   LIG    1       -1.772   2.541  -1.344  0.00  0.00    -0.301 NA
ATOM     16  C   LIG    1       -2.436   3.246  -2.380  0.00  0.00    +0.105 C 
ATOM     17  C   LIG    1       -6.058   0.659   0.243  0.00  0.00    +0.090 A 
ATOM     18  C   LIG    1       -2.617   1.687  -0.612  0.00  0.00    +0.068 C 
ENDROOT
BRANCH  13  19
ATOM     19  C   LIG    1        1.197   0.206  -1.122  0.00  0.00    +0.112 C 
BRANCH  19  20
ATOM     20  N   LIG    1        2.295   0.112  -0.315  0.00  0.00    -0.281 N 
ATOM     21  H   LIG    1        1.514  -0.144   0.791  0.00  0.00    +0.152 HD
ATOM     22  C   LIG    1        3.387   0.019   0.487  0.00  0.00    +0.401 C 
ATOM     23  O   LIG    1        3.401  -0.202   1.782  0.00  0.00    -0.226 OA
BRANCH  22  24
ATOM     24  O   LIG    1        4.655   0.144   0.092  0.00  0.00    -0.446 OA
BRANCH  24  25
ATOM     25  C   LIG    1        5.842   0.261  -0.276  0.00  0.00    +0.269 C 
BRANCH  25  26
ATOM     26  C   LIG    1        6.701  -0.939   0.062  0.00  0.00    -0.010 A 
ATOM     27  C   LIG    1        7.885  -0.793   0.741  0.00  0.00    +0.007 A 
ATOM     28  C   LIG    1        8.660  -1.891   1.058  0.00  0.00    +0.000 A 
ATOM     29  C   LIG    1        8.197  -3.145   0.663  0.00  0.00    +0.000 A 
ATOM     30  C   LIG    1        7.022  -3.286  -0.010  0.00  0.00    +0.000 A 
ATOM     31  C   LIG    1        6.248  -2.183  -0.326  0.00  0.00    +0.007 A 
ENDBRANCH  25  26
ENDBRANCH  24  25
ENDBRANCH  22  24
ENDBRANCH  19  20
ENDBRANCH  13  19
TORSDOF 5
