REMARK  Name = molecules/WZPBZJONDBGPKJ-VEHQQRBSSA-N.pdb
REMARK                            x       y       z     vdW  Elec       q    Type
REMARK                         _______ _______ _______ _____ _____    ______ ____
ROOT
ATOM      1  N   LIG    1       -2.463  -0.208  -0.151  0.00  0.00    -0.077 NA
ATOM      2  C   LIG    1       -1.536   0.732  -0.282  0.00  0.00    +0.190 C 
ENDROOT
BRANCH   2   3
ATOM      3  C   LIG    1       -2.059   2.108  -0.470  0.00  0.00    +0.107 A 
ATOM      4  C   LIG    1       -3.436   2.375  -0.566  0.00  0.00    +0.078 A 
ATOM      5  S   LIG    1       -3.436   4.072  -0.801  0.00  0.00    -0.060 S 
ATOM      6  C   LIG    1       -1.752   4.346  -0.765  0.00  0.00    +0.156 A 
ATOM      7  N   LIG    1       -1.288   3.130  -0.577  0.00  0.00    -0.223 NA
BRANCH   6   8
ATOM      8  N   LIG    1       -1.024   5.586  -0.908  0.00  0.00    -0.338 N 
ATOM      9  H   LIG    1       -0.666   6.090  -0.083  0.00  0.00    +0.144 HD
ATOM     10  H   LIG    1       -0.879   5.941  -1.876  0.00  0.00    +0.144 HD
ENDBRANCH   6   8
ENDBRANCH   2   3
BRANCH   2  11
ATOM     11  C   LIG    1       -0.141   0.372  -0.298  0.00  0.00    +0.268 C 
ATOM     12  O   LIG    1        0.103  -0.886  -0.217  0.00  0.00    -0.268 OA
ATOM     13  N   LIG    1        0.967   1.198  -0.389  0.00  0.00    -0.297 N 
ATOM     14  H   LIG    1        0.749   2.254  -0.429  0.00  0.00    +0.150 HD
BRANCH  13  15
ATOM     15  C   LIG    1        2.358   0.922  -0.438  0.00  0.00    +0.183 C 
ATOM     16  C   LIG    1        3.167   0.714   0.752  0.00  0.00    +0.129 C 
ATOM     17  C   LIG    1        4.153   1.743   1.206  0.00  0.00    +0.032 C 
ATOM     18  N   LIG    1        3.888  -0.340   0.014  0.00  0.00    -0.146 N 
ATOM     19  C   LIG    1        2.710  -0.539  -0.738  0.00  0.00    +0.259 C 
ATOM     20  O   LIG    1        2.236  -1.507  -1.349  0.00  0.00    -0.272 OA
BRANCH  18  21
ATOM     21  S   LIG    1        5.490  -0.987   0.090  0.00  0.00    +0.169 S 
ATOM     22  O   LIG    1        6.217  -0.492   1.284  0.00  0.00    -0.126 OA
ATOM     23  O   LIG    1        6.245  -0.657  -1.178  0.00  0.00    -0.126 OA
BRANCH  21  24
ATOM     24  O   LIG    1        5.347  -2.659   0.153  0.00  0.00    -0.238 OA
ATOM     25  H   LIG    1        5.281  -3.038  -0.737  0.00  0.00    +0.246 HD
ENDBRANCH  21  24
ENDBRANCH  18  21
ENDBRANCH  13  15
ENDBRANCH   2  11
BRANCH   1  26
ATOM     26  O   LIG    1       -2.018  -1.488   0.028  0.00  0.00    -0.376 OA
BRANCH  26  27
ATOM     27  C   LIG    1       -2.873  -2.570  -0.198  0.00  0.00    +0.228 C 
ATOM     28  C   LIG    1       -2.104  -3.872   0.035  0.00  0.00    +0.070 C 
ATOM     29  C   LIG    1       -3.334  -2.622  -1.633  0.00  0.00    +0.070 C 
BRANCH  27  30
ATOM     30  C   LIG    1       -4.068  -2.506   0.668  0.00  0.00    +0.351 C 
ATOM     31  O   LIG    1       -4.959  -3.385   0.639  0.00  0.00    -0.246 OA
BRANCH  30  32
ATOM     32  O   LIG    1       -4.198  -1.434   1.538  0.00  0.00    -0.478 OA
ATOM     33  H   LIG    1       -5.080  -1.190   1.976  0.00  0.00    +0.295 HD
ENDBRANCH  30  32
ENDBRANCH  27  30
ENDBRANCH  26  27
ENDBRANCH   1  26
TORSDOF 10
