REMARK  Name = molecules/XAGMUUZPGZWTRP-ZETCQYMHSA-N.pdb
REMARK                            x       y       z     vdW  Elec       q    Type
REMARK                         _______ _______ _______ _____ _____    ______ ____
ROOT
ATOM      1  C   LIG    1       -0.710  -0.258  -0.144  0.00  0.00    +0.152 A 
ATOM      2  C   LIG    1        0.550   0.330   0.031  0.00  0.00    +0.096 A 
ATOM      3  C   LIG    1        0.639   1.694   0.172  0.00  0.00    +0.052 A 
ATOM      4  C   LIG    1        1.882   2.290   0.346  0.00  0.00    +0.204 A 
ATOM      5  O   LIG    1        1.947   3.536   0.472  0.00  0.00    -0.286 OA
ATOM      6  C   LIG    1        3.024   1.495   0.377  0.00  0.00    +0.122 A 
ATOM      7  C   LIG    1        2.856   0.157   0.232  0.00  0.00    +0.105 A 
ATOM      8  C   LIG    1       -0.504   2.458   0.138  0.00  0.00    +0.052 A 
ATOM      9  C   LIG    1       -1.757   1.912  -0.033  0.00  0.00    +0.133 A 
ATOM     10  F   LIG    1       -2.873   2.640  -0.068  0.00  0.00    -0.205 F 
ATOM     11  N   LIG    1        1.655  -0.443   0.061  0.00  0.00    -0.337 N 
ATOM     12  C   LIG    1        1.619  -1.872  -0.081  0.00  0.00    +0.122 C 
ATOM     13  C   LIG    1        1.601  -2.577   1.263  0.00  0.00    +0.034 C 
ATOM     14  C   LIG    1        0.359  -2.320  -0.824  0.00  0.00    +0.254 C 
ATOM     15  C   LIG    1       -1.849   0.531  -0.175  0.00  0.00    +0.051 A 
ATOM     16  O   LIG    1       -0.758  -1.634  -0.281  0.00  0.00    -0.487 OA
ENDROOT
BRANCH  15  17
ATOM     17  C   LIG    1       -3.151  -0.107  -0.359  0.00  0.00    +0.048 C 
ATOM     18  C   LIG    1       -3.488  -1.432   0.262  0.00  0.00    +0.029 C 
ATOM     19  C   LIG    1       -3.348  -1.313  -1.224  0.00  0.00    +0.029 C 
BRANCH  17  20
ATOM     20  N   LIG    1       -4.307   0.803  -0.380  0.00  0.00    -0.321 NA
ATOM     21  H   LIG    1       -4.544   1.200   0.525  0.00  0.00    +0.119 HD
ATOM     22  H   LIG    1       -4.380   1.368  -1.220  0.00  0.00    +0.119 HD
ENDBRANCH  17  20
ENDBRANCH  15  17
BRANCH   6  23
ATOM     23  C   LIG    1        4.296   2.152   0.560  0.00  0.00    +0.342 C 
ATOM     24  O   LIG    1        5.350   1.469   0.593  0.00  0.00    -0.245 OA
BRANCH  23  25
ATOM     25  O   LIG    1        4.411   3.525   0.703  0.00  0.00    -0.477 OA
ATOM     26  H   LIG    1        4.235   4.088  -0.114  0.00  0.00    +0.295 HD
ENDBRANCH  23  25
ENDBRANCH   6  23
TORSDOF 4
