REMARK  Name = molecules/XAXMYHMKTCNRRZ-QGZVFWFLSA-N.pdb
REMARK                            x       y       z     vdW  Elec       q    Type
REMARK                         _______ _______ _______ _____ _____    ______ ____
ROOT
ATOM      1  N   LIG    1        2.053  -0.492  -0.592  0.00  0.00    -0.266 N 
ATOM      2  C   LIG    1        1.304   0.723  -0.461  0.00  0.00    +0.046 A 
ATOM      3  C   LIG    1        2.102   1.840  -0.456  0.00  0.00    +0.025 A 
ATOM      4  C   LIG    1        1.483   3.073  -0.455  0.00  0.00    +0.022 A 
ATOM      5  C   LIG    1        0.099   3.165  -0.461  0.00  0.00    +0.042 A 
ATOM      6 CL   LIG    1       -0.717   4.721  -0.457  0.00  0.00    -0.084 Cl
ATOM      7  C   LIG    1       -0.706   2.059  -0.465  0.00  0.00    +0.032 A 
ATOM      8  C   LIG    1       -0.101   0.811  -0.460  0.00  0.00    +0.023 A 
ATOM      9  C   LIG    1       -1.053  -0.260  -0.418  0.00  0.00    +0.081 C 
ATOM     10  N   LIG    1       -0.885  -1.371  -1.102  0.00  0.00    -0.243 NA
ATOM     11  C   LIG    1        0.184  -1.794  -1.980  0.00  0.00    +0.320 C 
ATOM     12  C   LIG    1        1.516  -1.618  -1.337  0.00  0.00    +0.271 C 
ATOM     13  O   LIG    1        2.288  -2.578  -1.453  0.00  0.00    -0.270 OA
ENDROOT
BRANCH   9  14
ATOM     14  C   LIG    1       -2.243  -0.119   0.356  0.00  0.00    +0.036 A 
ATOM     15  C   LIG    1       -2.555   0.819   1.280  0.00  0.00    +0.133 A 
ATOM     16  C   LIG    1       -3.816   0.901   1.835  0.00  0.00    +0.039 A 
ATOM     17  C   LIG    1       -4.819   0.034   1.484  0.00  0.00    +0.003 A 
ATOM     18  C   LIG    1       -4.520  -0.930   0.550  0.00  0.00    +0.001 A 
ATOM     19  F   LIG    1       -1.589   1.645   1.808  0.00  0.00    -0.205 F 
ATOM     20  C   LIG    1       -3.288  -1.004   0.010  0.00  0.00    +0.013 A 
ENDBRANCH   9  14
BRANCH  11  21
ATOM     21  O   LIG    1        0.008  -3.150  -2.204  0.00  0.00    -0.364 OA
ATOM     22  H   LIG    1       -0.299  -3.656  -1.429  0.00  0.00    +0.212 HD
ENDBRANCH  11  21
BRANCH   1  23
ATOM     23  C   LIG    1        3.311  -0.546   0.026  0.00  0.00    +0.128 C 
BRANCH  23  24
ATOM     24  C   LIG    1        3.264  -1.034   1.471  0.00  0.00    +0.138 C 
BRANCH  24  25
ATOM     25  C   LIG    1        4.618  -1.057   2.027  0.00  0.00    +0.064 C 
ATOM     26  N   LIG    1        5.700  -1.087   2.465  0.00  0.00    -0.197 NA
ENDBRANCH  24  25
ENDBRANCH  23  24
ENDBRANCH   1  23
TORSDOF 5
