REMARK  Name = molecules/XBBDACCLCFWBSI-ZETCQYMHSA-N.pdb
REMARK                            x       y       z     vdW  Elec       q    Type
REMARK                         _______ _______ _______ _____ _____    ______ ____
ROOT
ATOM      1  C   LIG    1       -0.966   0.183   0.659  0.00  0.00    -0.042 A 
ATOM      2  C   LIG    1       -1.499  -1.075   0.860  0.00  0.00    +0.007 A 
ATOM      3  C   LIG    1       -2.854  -1.280   0.728  0.00  0.00    +0.049 A 
ATOM      4  C   LIG    1       -3.657  -0.204   0.392  0.00  0.00    +0.158 A 
ATOM      5  C   LIG    1       -3.148   1.053   0.188  0.00  0.00    +0.158 A 
ATOM      6  C   LIG    1       -1.792   1.251   0.322  0.00  0.00    +0.053 A 
ENDROOT
BRANCH   4   7
ATOM      7  O   LIG    1       -5.039  -0.364   0.246  0.00  0.00    -0.503 OA
ATOM      8  H   LIG    1       -5.513  -1.231   0.371  0.00  0.00    +0.292 HD
ENDBRANCH   4   7
BRANCH   5   9
ATOM      9  O   LIG    1       -3.991   2.114  -0.150  0.00  0.00    -0.503 OA
ATOM     10  H   LIG    1       -3.640   3.045  -0.305  0.00  0.00    +0.292 HD
ENDBRANCH   5   9
BRANCH   1  11
ATOM     11  C   LIG    1        0.479   0.400   0.801  0.00  0.00    +0.065 C 
BRANCH  11  12
ATOM     12  C   LIG    1        1.215   0.190  -0.506  0.00  0.00    +0.165 C 
BRANCH  12  13
ATOM     13  N   LIG    1        0.964  -1.104  -1.069  0.00  0.00    -0.318 NA
ATOM     14  H   LIG    1        1.874  -1.558  -1.269  0.00  0.00    +0.119 HD
ATOM     15  H   LIG    1        0.363  -1.075  -1.920  0.00  0.00    +0.119 HD
ENDBRANCH  12  13
BRANCH  12  16
ATOM     16  C   LIG    1        2.666   0.420  -0.310  0.00  0.00    +0.324 C 
ATOM     17  O   LIG    1        3.080   1.499   0.174  0.00  0.00    -0.249 OA
BRANCH  16  18
ATOM     18  O   LIG    1        3.551  -0.577  -0.670  0.00  0.00    -0.467 OA
ATOM     19  C   LIG    1        4.934  -0.461  -0.527  0.00  0.00    +0.280 C 
ENDBRANCH  16  18
ENDBRANCH  12  16
ENDBRANCH  11  12
ENDBRANCH   1  11
TORSDOF 7
