REMARK  Name = molecules/XBEDAMVJWVPVDS-UHFFFAOYSA-N.pdb
REMARK                            x       y       z     vdW  Elec       q    Type
REMARK                         _______ _______ _______ _____ _____    ______ ____
ROOT
ATOM      1  N   LIG    1       -0.384  -1.128   0.328  0.00  0.00    -0.325 N 
ATOM      2  C   LIG    1       -1.552  -0.497   0.225  0.00  0.00    +0.151 A 
ATOM      3  C   LIG    1       -1.953   0.802   0.424  0.00  0.00    +0.282 A 
ATOM      4  O   LIG    1       -1.097   1.638   0.782  0.00  0.00    -0.265 OA
ATOM      5  N   LIG    1       -3.242   1.139   0.233  0.00  0.00    -0.262 N 
ATOM      6  C   LIG    1       -3.667   2.530   0.447  0.00  0.00    +0.157 C 
ATOM      7  C   LIG    1       -4.123   0.203  -0.152  0.00  0.00    +0.333 A 
ATOM      8  O   LIG    1       -5.328   0.545  -0.325  0.00  0.00    -0.246 OA
ATOM      9  N   LIG    1       -3.801  -1.077  -0.363  0.00  0.00    -0.280 N 
ATOM     10  C   LIG    1       -4.749  -2.092  -0.778  0.00  0.00    +0.155 C 
ATOM     11  C   LIG    1       -2.506  -1.419  -0.171  0.00  0.00    +0.168 A 
ATOM     12  N   LIG    1       -1.857  -2.577  -0.289  0.00  0.00    -0.218 NA
ATOM     13  C   LIG    1       -0.556  -2.416   0.013  0.00  0.00    +0.202 A 
ENDROOT
BRANCH   1  14
ATOM     14  C   LIG    1        0.880  -0.538   0.716  0.00  0.00    +0.123 C 
BRANCH  14  15
ATOM     15  C   LIG    1        1.544  -0.061  -0.557  0.00  0.00    +0.022 C 
BRANCH  15  16
ATOM     16  C   LIG    1        2.886   0.589  -0.315  0.00  0.00    +0.009 C 
BRANCH  16  17
ATOM     17  C   LIG    1        3.829  -0.371   0.334  0.00  0.00    +0.074 C 
BRANCH  17  18
ATOM     18  C   LIG    1        5.175   0.263   0.578  0.00  0.00    +0.130 C 
ATOM     19  O   LIG    1        6.005  -0.459   1.107  0.00  0.00    -0.298 OA
ATOM     20  C   LIG    1        5.471   1.658   0.204  0.00  0.00    +0.086 C 
ENDBRANCH  17  18
ENDBRANCH  16  17
ENDBRANCH  15  16
ENDBRANCH  14  15
ENDBRANCH   1  14
TORSDOF 5
