REMARK  Name = molecules/XBJWOGLKABXFJE-YFKPBYRVSA-N.pdb
REMARK                            x       y       z     vdW  Elec       q    Type
REMARK                         _______ _______ _______ _____ _____    ______ ____
ROOT
ATOM      1  C   LIG    1        0.677  -0.208  -0.321  0.00  0.00    +0.404 C 
ATOM      2  N   LIG    1       -0.597  -0.533   0.195  0.00  0.00    -0.244 N 
ATOM      3  C   LIG    1       -0.767  -1.533   1.271  0.00  0.00    +0.181 C 
ATOM      4  S   LIG    1       -1.750  -0.483   2.428  0.00  0.00    -0.139 S 
ATOM      5  C   LIG    1       -2.285   0.757   1.166  0.00  0.00    +0.104 C 
ATOM      6  C   LIG    1       -1.929  -0.090  -0.073  0.00  0.00    +0.198 C 
ATOM      7  O   LIG    1        0.906   0.644  -1.220  0.00  0.00    -0.226 OA
ENDROOT
BRANCH   6   8
ATOM      8  C   LIG    1       -2.222   0.554  -1.319  0.00  0.00    +0.326 C 
ATOM      9  O   LIG    1       -1.446   0.758  -2.259  0.00  0.00    -0.249 OA
BRANCH   8  10
ATOM     10  O   LIG    1       -3.541   1.017  -1.517  0.00  0.00    -0.479 OA
ATOM     11  H   LIG    1       -4.337   0.416  -1.451  0.00  0.00    +0.295 HD
ENDBRANCH   8  10
ENDBRANCH   6   8
BRANCH   1  12
ATOM     12  O   LIG    1        1.849  -0.834   0.146  0.00  0.00    -0.451 OA
BRANCH  12  13
ATOM     13  C   LIG    1        3.122  -0.543  -0.333  0.00  0.00    +0.230 C 
ATOM     14  C   LIG    1        3.429   0.907  -0.087  0.00  0.00    +0.048 C 
ENDBRANCH  12  13
ENDBRANCH   1  12
TORSDOF 4
