REMARK  Name = molecules/XBMIVRRWGCYBTQ-PGRDOPGGSA-N.pdb
REMARK                            x       y       z     vdW  Elec       q    Type
REMARK                         _______ _______ _______ _____ _____    ______ ____
ROOT
ATOM      1  C   LIG    1       -0.248  -0.194  -0.228  0.00  0.00    +0.059 C 
ENDROOT
BRANCH   1   2
ATOM      2  C   LIG    1       -0.397  -1.201   0.877  0.00  0.00    -0.033 A 
ATOM      3  C   LIG    1        0.273  -1.243   2.049  0.00  0.00    +0.004 A 
ATOM      4  C   LIG    1        0.062  -2.196   3.035  0.00  0.00    +0.000 A 
ATOM      5  C   LIG    1       -0.873  -3.174   2.860  0.00  0.00    +0.000 A 
ATOM      6  C   LIG    1       -1.586  -3.179   1.691  0.00  0.00    +0.000 A 
ATOM      7  C   LIG    1       -1.353  -2.232   0.746  0.00  0.00    +0.004 A 
ENDBRANCH   1   2
BRANCH   1   8
ATOM      8  C   LIG    1       -0.707  -1.039  -1.410  0.00  0.00    -0.033 A 
ATOM      9  C   LIG    1       -0.014  -2.257  -1.526  0.00  0.00    +0.004 A 
ATOM     10  C   LIG    1       -0.276  -3.149  -2.548  0.00  0.00    +0.000 A 
ATOM     11  C   LIG    1       -1.249  -2.801  -3.457  0.00  0.00    +0.000 A 
ATOM     12  C   LIG    1       -1.927  -1.619  -3.350  0.00  0.00    +0.000 A 
ATOM     13  C   LIG    1       -1.649  -0.722  -2.306  0.00  0.00    +0.004 A 
ENDBRANCH   1   8
BRANCH   1  14
ATOM     14  C   LIG    1       -1.200   0.877   0.098  0.00  0.00    +0.191 C 
BRANCH  14  15
ATOM     15  C   LIG    1       -0.839   1.518   1.489  0.00  0.00    +0.042 C 
ATOM     16  C   LIG    1       -1.863   2.631   1.741  0.00  0.00    +0.007 C 
ENDBRANCH  14  15
BRANCH  14  17
ATOM     17  O   LIG    1       -1.590   1.856  -0.765  0.00  0.00    -0.460 OA
BRANCH  17  18
ATOM     18  C   LIG    1       -2.900   2.284  -1.007  0.00  0.00    +0.304 C 
ATOM     19  O   LIG    1       -3.821   1.716  -0.376  0.00  0.00    -0.251 OA
ATOM     20  C   LIG    1       -3.225   3.361  -1.964  0.00  0.00    +0.136 C 
ENDBRANCH  17  18
ENDBRANCH  14  17
ENDBRANCH   1  14
BRANCH   1  21
ATOM     21  C   LIG    1        1.075   0.203  -0.688  0.00  0.00    +0.038 C 
BRANCH  21  22
ATOM     22  C   LIG    1        2.129   0.995  -0.135  0.00  0.00    +0.054 C 
ATOM     23  C   LIG    1        3.326   1.112  -1.151  0.00  0.00    +0.024 C 
BRANCH  22  24
ATOM     24  N   LIG    1        2.775   0.588   1.057  0.00  0.00    -0.306 NA
ATOM     25  C   LIG    1        3.467   1.618   1.772  0.00  0.00    +0.104 C 
ATOM     26  C   LIG    1        3.502  -0.652   0.981  0.00  0.00    +0.104 C 
ENDBRANCH  22  24
ENDBRANCH  21  22
ENDBRANCH   1  21
TORSDOF 9
