REMARK  Name = molecules/XCWPUUGSGHNIDZ-UHFFFAOYSA-N.pdb
REMARK                            x       y       z     vdW  Elec       q    Type
REMARK                         _______ _______ _______ _____ _____    ______ ____
ROOT
ATOM      1  C   LIG    1       -1.660  -0.928   0.227  0.00  0.00    -0.018 A 
ATOM      2  C   LIG    1       -2.898  -0.255   0.181  0.00  0.00    +0.007 A 
ATOM      3  C   LIG    1       -3.451   0.845   0.781  0.00  0.00    +0.059 A 
ATOM      4  C   LIG    1       -4.719   1.293   0.550  0.00  0.00    +0.162 A 
ATOM      5  C   LIG    1       -5.514   0.581  -0.363  0.00  0.00    +0.163 A 
ATOM      6  C   LIG    1       -4.989  -0.541  -0.994  0.00  0.00    +0.075 A 
ATOM      7  C   LIG    1       -3.680  -0.941  -0.708  0.00  0.00    +0.051 A 
ATOM      8  N   LIG    1       -3.010  -1.978  -1.204  0.00  0.00    -0.358 N 
ATOM      9  H   LIG    1       -3.324  -2.683  -1.895  0.00  0.00    +0.166 HD
ATOM     10  C   LIG    1       -1.750  -1.977  -0.626  0.00  0.00    +0.017 A 
ATOM     11  C   LIG    1       -0.744  -3.013  -0.968  0.00  0.00    +0.063 C 
ENDROOT
BRANCH   4  12
ATOM     12  O   LIG    1       -5.260   2.412   1.172  0.00  0.00    -0.491 OA
ATOM     13  C   LIG    1       -4.444   3.117   2.088  0.00  0.00    +0.277 C 
ENDBRANCH   4  12
BRANCH   5  14
ATOM     14  O   LIG    1       -6.792   1.045  -0.583  0.00  0.00    -0.491 OA
ATOM     15  C   LIG    1       -7.751   0.488  -1.444  0.00  0.00    +0.277 C 
ENDBRANCH   5  14
BRANCH   1  16
ATOM     16  C   LIG    1       -0.577  -0.470   1.091  0.00  0.00    +0.053 C 
BRANCH  16  17
ATOM     17  C   LIG    1        0.730  -1.135   1.032  0.00  0.00    +0.089 C 
BRANCH  17  18
ATOM     18  N   LIG    1        1.349  -1.087  -0.260  0.00  0.00    -0.299 NA
ATOM     19  C   LIG    1        2.575  -1.846  -0.309  0.00  0.00    +0.103 C 
ATOM     20  C   LIG    1        3.575  -1.156  -1.208  0.00  0.00    +0.120 C 
ATOM     21  N   LIG    1        3.768   0.161  -0.642  0.00  0.00    -0.327 N 
ATOM     22  C   LIG    1        2.596   1.015  -0.674  0.00  0.00    +0.120 C 
ATOM     23  C   LIG    1        1.357   0.166  -0.920  0.00  0.00    +0.103 C 
BRANCH  21  24
ATOM     24  C   LIG    1        4.996   0.564  -0.092  0.00  0.00    +0.030 A 
ATOM     25  C   LIG    1        5.179   1.905   0.285  0.00  0.00    +0.023 A 
ATOM     26  C   LIG    1        6.366   2.297   0.828  0.00  0.00    +0.002 A 
ATOM     27  C   LIG    1        7.430   1.449   1.041  0.00  0.00    +0.000 A 
ATOM     28  C   LIG    1        7.266   0.132   0.677  0.00  0.00    +0.002 A 
ATOM     29  C   LIG    1        6.058  -0.277   0.122  0.00  0.00    +0.023 A 
ENDBRANCH  21  24
ENDBRANCH  17  18
ENDBRANCH  16  17
ENDBRANCH   1  16
TORSDOF 6
