REMARK  Name = molecules/XDAOLTSRNUSPPH-XMMPIXPASA-N.pdb
REMARK                            x       y       z     vdW  Elec       q    Type
REMARK                         _______ _______ _______ _____ _____    ______ ____
ROOT
ATOM      1  C   LIG    1       -2.754  -0.287  -0.266  0.00  0.00    +0.121 A 
ATOM      2  C   LIG    1       -2.075  -1.194   0.501  0.00  0.00    +0.047 A 
ATOM      3  C   LIG    1       -0.709  -1.457   0.326  0.00  0.00    +0.027 A 
ATOM      4  C   LIG    1       -0.007  -0.793  -0.644  0.00  0.00    +0.030 A 
ATOM      5  C   LIG    1       -0.692   0.125  -1.421  0.00  0.00    +0.027 A 
ATOM      6  C   LIG    1       -2.036   0.377  -1.241  0.00  0.00    +0.047 A 
ENDROOT
BRANCH   4   7
ATOM      7  N   LIG    1        1.370  -1.056  -0.824  0.00  0.00    -0.330 N 
ATOM      8  C   LIG    1        2.172  -1.968  -0.058  0.00  0.00    +0.108 C 
ATOM      9  C   LIG    1        3.341  -1.179   0.541  0.00  0.00    +0.063 C 
ATOM     10  C   LIG    1        4.137  -0.457  -0.528  0.00  0.00    +0.176 C 
ATOM     11  C   LIG    1        3.526  -0.646  -1.905  0.00  0.00    +0.063 C 
ATOM     12  C   LIG    1        2.058  -0.336  -1.892  0.00  0.00    +0.108 C 
BRANCH  10  13
ATOM     13  O   LIG    1        5.429  -0.959  -0.509  0.00  0.00    -0.489 OA
BRANCH  13  14
ATOM     14  C   LIG    1        6.601  -0.321  -0.243  0.00  0.00    +0.121 A 
ATOM     15  C   LIG    1        6.720   1.011   0.072  0.00  0.00    +0.049 A 
ATOM     16  C   LIG    1        7.970   1.576   0.330  0.00  0.00    +0.049 A 
ATOM     17  C   LIG    1        9.093   0.794   0.268  0.00  0.00    +0.130 A 
ATOM     18  C   LIG    1        9.014  -0.539  -0.043  0.00  0.00    +0.049 A 
ATOM     19  C   LIG    1        7.768  -1.072  -0.293  0.00  0.00    +0.049 A 
BRANCH  17  20
ATOM     20  O   LIG    1       10.359   1.338   0.523  0.00  0.00    -0.406 OA
BRANCH  20  21
ATOM     21  C   LIG    1       10.882   1.344   1.847  0.00  0.00    +0.575 C 
ATOM     22  F   LIG    1       10.038   2.071   2.691  0.00  0.00    -0.133 F 
ATOM     23  F   LIG    1       10.874   0.046   2.314  0.00  0.00    -0.133 F 
ATOM     24  F   LIG    1       12.142   1.887   1.803  0.00  0.00    -0.133 F 
ENDBRANCH  20  21
ENDBRANCH  17  20
ENDBRANCH  13  14
ENDBRANCH  10  13
ENDBRANCH   4   7
BRANCH   1  25
ATOM     25  O   LIG    1       -4.106  -0.063  -0.051  0.00  0.00    -0.488 OA
BRANCH  25  26
ATOM     26  C   LIG    1       -4.833   0.854  -0.813  0.00  0.00    +0.278 C 
BRANCH  26  27
ATOM     27  C   LIG    1       -6.280   0.940  -0.414  0.00  0.00    +0.162 C 
ATOM     28  O   LIG    1       -6.448   1.337   0.934  0.00  0.00    -0.452 OA
ATOM     29  C   LIG    1       -7.718   0.874   1.295  0.00  0.00    +0.301 A 
ATOM     30  N   LIG    1       -8.768   1.094   2.139  0.00  0.00    -0.171 NA
ATOM     31  C   LIG    1       -9.735   0.193   1.917  0.00  0.00    +0.236 A 
ATOM     32  C   LIG    1       -9.255  -0.606   0.901  0.00  0.00    +0.144 A 
ATOM     33  N   LIG    1       -8.033  -0.187   0.530  0.00  0.00    -0.295 N 
ATOM     34  C   LIG    1       -6.935  -0.446  -0.378  0.00  0.00    +0.177 C 
ATOM     35  C   LIG    1       -7.078   1.857  -1.278  0.00  0.00    +0.061 C 
BRANCH  31  36
ATOM     36  N   LIG    1      -11.002   0.010   2.529  0.00  0.00    +0.077 N 
ATOM     37  O   LIG    1      -11.425   0.850   3.549  0.00  0.00    -0.125 OA
ATOM     38  O   LIG    1      -11.787  -0.895   2.191  0.00  0.00    -0.125 OA
ENDBRANCH  31  36
ENDBRANCH  26  27
ENDBRANCH  25  26
ENDBRANCH   1  25
TORSDOF 9
