REMARK  Name = molecules/XDDJGVMJFWAHJX-AWEZNQCLSA-N.pdb
REMARK                            x       y       z     vdW  Elec       q    Type
REMARK                         _______ _______ _______ _____ _____    ______ ____
ROOT
ATOM      1  CA  LIG    1       -1.484  -2.341   0.450  0.00  0.00    +0.299 C 
ATOM      2  C   LIG    1       -2.160  -1.665   1.612  0.00  0.00    +0.253 C 
ATOM      3  O   LIG    1       -2.610  -2.375   2.526  0.00  0.00    -0.273 OA
ATOM      4  N   LIG    1       -2.340  -0.259   1.773  0.00  0.00    -0.283 N 
ATOM      5  H   LIG    1       -2.888   0.138   2.543  0.00  0.00    +0.155 HD
ATOM      6  C   LIG    1       -1.805   0.742   0.891  0.00  0.00    +0.043 A 
ATOM      7  C   LIG    1       -2.539   1.886   0.782  0.00  0.00    +0.025 A 
ATOM      8  C   LIG    1       -2.116   2.824  -0.131  0.00  0.00    +0.022 A 
ATOM      9  C   LIG    1       -1.009   2.675  -0.933  0.00  0.00    +0.042 A 
ATOM     10  C   LIG    1       -0.271   1.512  -0.815  0.00  0.00    +0.032 A 
ATOM     11 CL   LIG    1       -0.500   3.895  -2.086  0.00  0.00    -0.084 Cl
ATOM     12  C   LIG    1       -0.668   0.557   0.095  0.00  0.00    +0.023 A 
ATOM     13  C   LIG    1        0.242  -0.565   0.108  0.00  0.00    +0.076 C 
ATOM     14  N   LIG    1       -0.145  -1.803   0.260  0.00  0.00    -0.259 NA
ENDROOT
BRANCH  13  15
ATOM     15  C   LIG    1        1.644  -0.300  -0.066  0.00  0.00    +0.001 A 
ATOM     16  C   LIG    1        2.281   0.898   0.049  0.00  0.00    +0.010 A 
ATOM     17  C   LIG    1        3.671   1.064   0.003  0.00  0.00    +0.001 A 
ATOM     18  C   LIG    1        4.484  -0.017  -0.164  0.00  0.00    +0.000 A 
ATOM     19  C   LIG    1        3.877  -1.250  -0.281  0.00  0.00    +0.001 A 
ATOM     20  C   LIG    1        2.515  -1.402  -0.236  0.00  0.00    +0.010 A 
ENDBRANCH  13  15
BRANCH   1  21
ATOM     21  C   LIG    1       -2.275  -2.025  -0.754  0.00  0.00    +0.339 C 
ATOM     22  OXT LIG    1       -3.491  -2.369  -0.880  0.00  0.00    -0.248 OA
BRANCH  21  23
ATOM     23  O   LIG    1       -1.675  -1.327  -1.789  0.00  0.00    -0.479 OA
ATOM     24  H   LIG    1       -1.769  -1.586  -2.769  0.00  0.00    +0.295 HD
ENDBRANCH  21  23
ENDBRANCH   1  21
TORSDOF 3
