REMARK  Name = molecules/XDVCLKFLRAWGIT-ADOAZJKMSA-N.pdb
REMARK                            x       y       z     vdW  Elec       q    Type
REMARK                         _______ _______ _______ _____ _____    ______ ____
ROOT
ATOM      1  C   LIG    1       -0.846   1.097  -0.708  0.00  0.00    +0.190 C 
ATOM      2  C   LIG    1       -1.719   2.101  -0.059  0.00  0.00    +0.211 C 
ATOM      3  O   LIG    1       -1.259   3.226   0.352  0.00  0.00    -0.288 OA
ATOM      4  C   LIG    1       -3.126   1.796   0.110  0.00  0.00    +0.121 C 
ATOM      5  C   LIG    1       -3.441   0.560   0.382  0.00  0.00    +0.127 C 
ATOM      6  C   LIG    1       -2.396  -0.485   0.512  0.00  0.00    +0.129 C 
ATOM      7  C   LIG    1       -1.210  -0.326  -0.379  0.00  0.00    +0.061 C 
ATOM      8  C   LIG    1       -0.055  -1.115   0.122  0.00  0.00    +0.018 C 
ATOM      9  C   LIG    1        1.262  -0.779  -0.596  0.00  0.00    +0.031 C 
ATOM     10  C   LIG    1        2.285  -1.757  -0.179  0.00  0.00    +0.044 C 
ATOM     11  C   LIG    1        3.634  -1.218   0.103  0.00  0.00    -0.032 A 
ATOM     12  C   LIG    1        4.679  -2.139   0.305  0.00  0.00    +0.004 A 
ATOM     13  C   LIG    1        5.953  -1.742   0.577  0.00  0.00    +0.004 A 
ATOM     14  C   LIG    1        6.284  -0.408   0.668  0.00  0.00    +0.046 A 
ATOM     15  C   LIG    1        5.265   0.538   0.471  0.00  0.00    +0.128 A 
ATOM     16  C   LIG    1        3.968   0.115   0.194  0.00  0.00    +0.067 A 
ATOM     17  C   LIG    1        2.908   1.089  -0.023  0.00  0.00    +0.196 C 
ATOM     18  O   LIG    1        3.130   2.302   0.044  0.00  0.00    -0.287 OA
ATOM     19  C   LIG    1        1.545   0.636  -0.328  0.00  0.00    +0.044 C 
ATOM     20  C   LIG    1        0.538   1.470  -0.390  0.00  0.00    +0.141 C 
ENDROOT
BRANCH   4  21
ATOM     21  C   LIG    1       -4.125   2.854  -0.014  0.00  0.00    +0.248 C 
ATOM     22  O   LIG    1       -5.325   2.560   0.143  0.00  0.00    -0.270 OA
ATOM     23  N   LIG    1       -3.735   4.166  -0.303  0.00  0.00    -0.325 N 
ATOM     24  H   LIG    1       -3.279   4.798   0.388  0.00  0.00    +0.145 HD
ATOM     25  H   LIG    1       -3.900   4.556  -1.256  0.00  0.00    +0.145 HD
ENDBRANCH   4  21
BRANCH   6  26
ATOM     26  N   LIG    1       -2.940  -1.776   0.477  0.00  0.00    -0.299 NA
ATOM     27  C   LIG    1       -2.318  -2.913   0.977  0.00  0.00    +0.105 C 
ATOM     28  C   LIG    1       -3.876  -2.011  -0.604  0.00  0.00    +0.105 C 
ENDBRANCH   6  26
BRANCH   1  29
ATOM     29  O   LIG    1       -0.989   1.291  -2.099  0.00  0.00    -0.373 OA
ATOM     30  H   LIG    1       -1.247   2.228  -2.310  0.00  0.00    +0.211 HD
ENDBRANCH   1  29
BRANCH   5  31
ATOM     31  O   LIG    1       -4.765   0.201   0.555  0.00  0.00    -0.509 OA
ATOM     32  H   LIG    1       -5.277   0.314   1.416  0.00  0.00    +0.292 HD
ENDBRANCH   5  31
BRANCH  15  33
ATOM     33  O   LIG    1        5.642   1.839   0.570  0.00  0.00    -0.506 OA
ATOM     34  H   LIG    1        5.235   2.704   0.498  0.00  0.00    +0.292 HD
ENDBRANCH  15  33
BRANCH  20  35
ATOM     35  O   LIG    1        0.823   2.809  -0.134  0.00  0.00    -0.507 OA
ATOM     36  H   LIG    1        0.970   3.498  -0.846  0.00  0.00    +0.292 HD
ENDBRANCH  20  35
TORSDOF 6
