REMARK  Name = molecules/XDXWLKQMMKQXPV-QYQHSDTDSA-N.pdb
REMARK                            x       y       z     vdW  Elec       q    Type
REMARK                         _______ _______ _______ _____ _____    ______ ____
ROOT
ATOM      1  N   LIG    1        0.625  -0.703  -0.744  0.00  0.00    -0.233 N 
ATOM      2  H   LIG    1        0.377   0.209  -0.348  0.00  0.00    +0.175 HD
ENDROOT
BRANCH   1   8
ATOM      3  N   LIG    1       -3.719  -1.818  -1.591  0.00  0.00    -0.175 NA
ATOM      4  N   LIG    1       -3.651  -0.651  -0.813  0.00  0.00    -0.155 N 
ATOM      5  C   LIG    1       -2.271  -0.365  -0.586  0.00  0.00    +0.292 C 
ATOM      6  O   LIG    1       -1.803   0.590   0.062  0.00  0.00    -0.266 OA
ATOM      7  C   LIG    1       -1.515  -1.411  -1.262  0.00  0.00    +0.168 C 
ATOM      8  N   LIG    1       -0.248  -1.590  -1.351  0.00  0.00    -0.175 NA
ATOM      9  C   LIG    1       -2.566  -2.277  -1.866  0.00  0.00    +0.089 C 
ATOM     10  C   LIG    1       -2.223  -3.487  -2.661  0.00  0.00    +0.070 C 
BRANCH   4  11
ATOM     11  C   LIG    1       -4.794   0.070  -0.372  0.00  0.00    +0.061 A 
ATOM     12  C   LIG    1       -4.896   0.594   0.894  0.00  0.00    +0.029 A 
ATOM     13  C   LIG    1       -6.017   1.292   1.311  0.00  0.00    -0.046 A 
ATOM     14  C   LIG    1       -6.096   1.845   2.676  0.00  0.00    +0.044 C 
ATOM     15  C   LIG    1       -7.086   1.492   0.465  0.00  0.00    -0.047 A 
ATOM     16  C   LIG    1       -8.305   2.238   0.882  0.00  0.00    +0.044 C 
ATOM     17  C   LIG    1       -6.994   0.971  -0.810  0.00  0.00    +0.005 A 
ATOM     18  C   LIG    1       -5.877   0.275  -1.223  0.00  0.00    +0.026 A 
ENDBRANCH   4  11
ENDBRANCH   1   8
BRANCH   1  19
ATOM     19  C   LIG    1        2.005  -1.118  -0.671  0.00  0.00    +0.090 A 
ATOM     20  C   LIG    1        2.939  -0.319  -0.083  0.00  0.00    +0.147 A 
ATOM     21  C   LIG    1        4.247  -0.782  -0.051  0.00  0.00    +0.025 A 
ATOM     22  C   LIG    1        4.610  -2.001  -0.587  0.00  0.00    +0.012 A 
ATOM     23  C   LIG    1        3.667  -2.808  -1.182  0.00  0.00    +0.003 A 
ATOM     24  C   LIG    1        2.375  -2.349  -1.212  0.00  0.00    +0.028 A 
BRANCH  21  25
ATOM     25  C   LIG    1        5.270   0.035   0.561  0.00  0.00    -0.014 A 
ATOM     26  C   LIG    1        5.032   0.636   1.774  0.00  0.00    +0.008 A 
ATOM     27  C   LIG    1        6.018   1.427   2.385  0.00  0.00    +0.001 A 
ATOM     28  C   LIG    1        7.233   1.588   1.742  0.00  0.00    +0.015 A 
ATOM     29  C   LIG    1        7.493   0.995   0.524  0.00  0.00    +0.059 A 
ATOM     30  C   LIG    1        6.506   0.224  -0.053  0.00  0.00    +0.023 A 
BRANCH  29  31
ATOM     31  C   LIG    1        8.790   1.202  -0.100  0.00  0.00    +0.337 C 
ATOM     32  O   LIG    1        8.975   0.633  -1.227  0.00  0.00    -0.245 OA
BRANCH  31  33
ATOM     33  O   LIG    1        9.793   1.960   0.455  0.00  0.00    -0.477 OA
ATOM     34  H   LIG    1       10.367   2.584  -0.117  0.00  0.00    +0.295 HD
ENDBRANCH  31  33
ENDBRANCH  29  31
ENDBRANCH  21  25
BRANCH  20  35
ATOM     35  O   LIG    1        2.646   0.890   0.463  0.00  0.00    -0.504 OA
ATOM     36  H   LIG    1        1.754   1.333   0.507  0.00  0.00    +0.292 HD
ENDBRANCH  20  35
ENDBRANCH   1  19
TORSDOF 7
