REMARK  Name = molecules/XDZKBRJLTGRPSS-BGZQYGJUSA-N.pdb
REMARK                            x       y       z     vdW  Elec       q    Type
REMARK                         _______ _______ _______ _____ _____    ______ ____
ROOT
ATOM      1  CA  LIG    1       -0.703   0.538   2.775  0.00  0.00    +0.123 C 
ATOM      2  N   LIG    1        0.734   0.336   2.589  0.00  0.00    -0.249 N 
ATOM      3  C   LIG    1        1.738   1.372   2.797  0.00  0.00    +0.169 C 
ATOM      4  CA  LIG    1        2.745   0.589   1.988  0.00  0.00    +0.191 C 
ATOM      5  S   LIG    1        1.143   2.816   1.897  0.00  0.00    -0.131 S 
ATOM      6  C   LIG    1       -0.397   2.323   1.138  0.00  0.00    +0.104 C 
ATOM      7  C   LIG    1        1.773  -0.529   2.246  0.00  0.00    +0.244 C 
ATOM      8  O   LIG    1        1.926  -1.764   2.159  0.00  0.00    -0.273 OA
ATOM      9  C   LIG    1       -1.282   1.514   2.134  0.00  0.00    -0.021 C 
ENDROOT
BRANCH   4  10
ATOM     10  N   LIG    1        2.844   0.947   0.580  0.00  0.00    -0.296 N 
ATOM     11  H   LIG    1        1.974   1.075   0.072  0.00  0.00    +0.150 HD
ATOM     12  C   LIG    1        4.118   1.097   0.008  0.00  0.00    +0.268 C 
ATOM     13  O   LIG    1        5.109   0.900   0.804  0.00  0.00    -0.268 OA
BRANCH  12  14
ATOM     14  C   LIG    1        4.449   1.439  -1.342  0.00  0.00    +0.190 C 
ATOM     15  N   LIG    1        3.512   1.641  -2.176  0.00  0.00    -0.078 NA
BRANCH  14  16
ATOM     16  C   LIG    1        5.859   1.562  -1.839  0.00  0.00    +0.107 A 
ATOM     17  C   LIG    1        6.941   1.407  -1.025  0.00  0.00    +0.078 A 
ATOM     18  S   LIG    1        8.247   1.665  -2.144  0.00  0.00    -0.060 S 
ATOM     19  C   LIG    1        7.319   1.945  -3.535  0.00  0.00    +0.156 A 
ATOM     20  N   LIG    1        6.095   1.832  -3.095  0.00  0.00    -0.223 NA
BRANCH  19  21
ATOM     21  N   LIG    1        7.730   2.237  -4.893  0.00  0.00    -0.338 N 
ATOM     22  H   LIG    1        8.502   1.716  -5.319  0.00  0.00    +0.144 HD
ATOM     23  H   LIG    1        7.230   2.976  -5.418  0.00  0.00    +0.144 HD
ENDBRANCH  19  21
ENDBRANCH  14  16
BRANCH  15  24
ATOM     24  O   LIG    1        2.171   1.584  -1.992  0.00  0.00    -0.396 OA
ATOM     25  C   LIG    1        1.360   0.717  -2.751  0.00  0.00    +0.313 C 
ENDBRANCH  15  24
ENDBRANCH  12  14
ENDBRANCH   4  10
BRANCH   1  26
ATOM     26  C   LIG    1       -1.363  -0.344   3.685  0.00  0.00    +0.351 C 
ATOM     27  OXT LIG    1       -0.678  -1.328   4.178  0.00  0.00    -0.244 OA
BRANCH  26  28
ATOM     28  O   LIG    1       -2.633  -0.321   4.129  0.00  0.00    -0.476 OA
ATOM     29  H   LIG    1       -2.817  -0.385   5.141  0.00  0.00    +0.295 HD
ENDBRANCH  26  28
ENDBRANCH   1  26
BRANCH   9  30
ATOM     30  C   LIG    1       -2.638   1.946   2.142  0.00  0.00    +0.110 C 
BRANCH  30  31
ATOM     31  S   LIG    1       -4.019   1.080   2.800  0.00  0.00    -0.094 S 
BRANCH  31  32
ATOM     32  C   LIG    1       -4.540  -0.290   1.714  0.00  0.00    +0.135 A 
ATOM     33  S   LIG    1       -4.058  -1.920   1.667  0.00  0.00    -0.065 S 
ATOM     34  C   LIG    1       -5.038  -2.439   0.369  0.00  0.00    +0.024 A 
ATOM     35  C   LIG    1       -5.700  -1.281   0.041  0.00  0.00    +0.050 A 
ATOM     36  C   LIG    1       -6.709  -1.262  -1.093  0.00  0.00    +0.066 C 
ATOM     37  N   LIG    1       -5.430  -0.222   0.733  0.00  0.00    -0.238 NA
BRANCH  34  38
ATOM     38  C   LIG    1       -5.175  -3.791  -0.279  0.00  0.00    +0.164 C 
BRANCH  38  39
ATOM     39  C   LIG    1       -4.456  -3.800  -1.590  0.00  0.00    +0.310 C 
ATOM     40  O   LIG    1       -3.849  -2.789  -2.007  0.00  0.00    -0.251 OA
BRANCH  39  41
ATOM     41  O   LIG    1       -4.502  -4.984  -2.313  0.00  0.00    -0.480 OA
ATOM     42  H   LIG    1       -5.165  -5.047  -3.075  0.00  0.00    +0.295 HD
ENDBRANCH  39  41
ENDBRANCH  38  39
ENDBRANCH  34  38
ENDBRANCH  31  32
ENDBRANCH  30  31
ENDBRANCH   9  30
TORSDOF 13
