REMARK  Name = molecules/XEEQGYMUWCZPDN-DOMZBBRYSA-N.pdb
REMARK                            x       y       z     vdW  Elec       q    Type
REMARK                         _______ _______ _______ _____ _____    ______ ____
ROOT
ATOM      1  C   LIG    1        3.443  -1.976   0.210  0.00  0.00    +0.081 A 
ATOM      2  C   LIG    1        2.569  -0.883   0.137  0.00  0.00    +0.084 A 
ATOM      3  N   LIG    1        3.071   0.293   0.498  0.00  0.00    -0.242 NA
ATOM      4  C   LIG    1        2.343   1.406   0.490  0.00  0.00    +0.145 A 
ATOM      5  C   LIG    1        1.004   1.321   0.085  0.00  0.00    +0.039 A 
ATOM      6  C   LIG    1        0.421   0.124  -0.304  0.00  0.00    -0.007 A 
ATOM      7  C   LIG    1        1.240  -0.990  -0.266  0.00  0.00    +0.007 A 
ATOM      8  C   LIG    1        0.804  -2.257  -0.604  0.00  0.00    +0.010 A 
ATOM      9  C   LIG    1        1.624  -3.363  -0.548  0.00  0.00    +0.001 A 
ATOM     10  C   LIG    1        2.928  -3.202  -0.143  0.00  0.00    +0.014 A 
ENDROOT
BRANCH   1  11
ATOM     11  C   LIG    1        4.847  -1.762   0.640  0.00  0.00    +0.419 C 
ATOM     12  F   LIG    1        4.729  -1.071   1.864  0.00  0.00    -0.166 F 
ATOM     13  F   LIG    1        5.489  -2.949   0.781  0.00  0.00    -0.166 F 
ATOM     14  F   LIG    1        5.482  -0.904  -0.252  0.00  0.00    -0.166 F 
ENDBRANCH   1  11
BRANCH   4  15
ATOM     15  C   LIG    1        2.883   2.739   0.883  0.00  0.00    +0.434 C 
ATOM     16  F   LIG    1        2.644   2.870   2.262  0.00  0.00    -0.164 F 
ATOM     17  F   LIG    1        4.222   2.879   0.592  0.00  0.00    -0.164 F 
ATOM     18  F   LIG    1        2.145   3.721   0.226  0.00  0.00    -0.164 F 
ENDBRANCH   4  15
BRANCH   6  19
ATOM     19  C   LIG    1       -0.968   0.039  -0.784  0.00  0.00    +0.162 C 
BRANCH  19  20
ATOM     20  C   LIG    1       -1.849   1.199  -0.347  0.00  0.00    +0.087 C 
ATOM     21  N   LIG    1       -2.147   1.123   1.052  0.00  0.00    -0.311 NA
ATOM     22  H   LIG    1       -1.370   1.053   1.689  0.00  0.00    +0.122 HD
ATOM     23  C   LIG    1       -3.428   0.706   1.455  0.00  0.00    +0.081 C 
ATOM     24  C   LIG    1       -4.085  -0.234   0.486  0.00  0.00    +0.015 C 
ATOM     25  C   LIG    1       -4.208   0.476  -0.839  0.00  0.00    +0.003 C 
ATOM     26  C   LIG    1       -3.032   1.289  -1.237  0.00  0.00    +0.021 C 
ENDBRANCH  19  20
BRANCH  19  27
ATOM     27  O   LIG    1       -0.819   0.265  -2.202  0.00  0.00    -0.386 OA
ATOM     28  H   LIG    1       -0.432   1.172  -2.318  0.00  0.00    +0.210 HD
ENDBRANCH  19  27
ENDBRANCH   6  19
TORSDOF 5
