REMARK  Name = molecules/XEYBRNLFEZDVAW-ARSRFYASSA-N.pdb
REMARK                            x       y       z     vdW  Elec       q    Type
REMARK                         _______ _______ _______ _____ _____    ______ ____
ROOT
ATOM      1  C   LIG    1        0.701   0.758  -0.700  0.00  0.00    +0.068 C 
ATOM      2  C   LIG    1       -0.399  -0.080  -0.119  0.00  0.00    +0.051 C 
ATOM      3  C   LIG    1       -0.638  -1.137  -1.131  0.00  0.00    +0.129 C 
ATOM      4  C   LIG    1       -0.253  -0.537  -2.475  0.00  0.00    +0.106 C 
ATOM      5  C   LIG    1        0.930   0.289  -2.090  0.00  0.00    +0.140 C 
ATOM      6  O   LIG    1        1.866   0.493  -2.832  0.00  0.00    -0.297 OA
ENDROOT
BRANCH   2   7
ATOM      7  C   LIG    1       -1.545   0.836   0.127  0.00  0.00    -0.022 C 
ATOM      8  C   LIG    1       -2.713   0.802  -0.455  0.00  0.00    -0.000 C 
BRANCH   8   9
ATOM      9  C   LIG    1       -3.787   1.801  -0.104  0.00  0.00    +0.137 C 
BRANCH   9  10
ATOM     10  O   LIG    1       -4.819   1.664  -0.978  0.00  0.00    -0.388 OA
ATOM     11  H   LIG    1       -4.651   1.071  -1.744  0.00  0.00    +0.210 HD
ENDBRANCH   9  10
BRANCH   9  12
ATOM     12  C   LIG    1       -4.041   1.888   1.338  0.00  0.00    +0.035 C 
BRANCH  12  13
ATOM     13  C   LIG    1       -4.446   0.692   2.064  0.00  0.00    +0.003 C 
BRANCH  13  14
ATOM     14  C   LIG    1       -5.676  -0.053   1.838  0.00  0.00    -0.000 C 
BRANCH  14  15
ATOM     15  C   LIG    1       -5.976  -0.709   0.551  0.00  0.00    -0.003 C 
ATOM     16  C   LIG    1       -4.936  -1.700   0.120  0.00  0.00    +0.004 C 
ENDBRANCH  14  15
ENDBRANCH  13  14
ENDBRANCH  12  13
ENDBRANCH   9  12
ENDBRANCH   8   9
ENDBRANCH   2   7
BRANCH   3  17
ATOM     17  O   LIG    1        0.167  -2.252  -0.864  0.00  0.00    -0.391 OA
ATOM     18  H   LIG    1        0.969  -2.162  -1.437  0.00  0.00    +0.210 HD
ENDBRANCH   3  17
BRANCH   1  19
ATOM     19  C   LIG    1        1.969   0.800   0.114  0.00  0.00    +0.038 C 
BRANCH  19  20
ATOM     20  C   LIG    1        2.609  -0.481   0.334  0.00  0.00    -0.030 C 
ATOM     21  C   LIG    1        3.837  -0.712  -0.092  0.00  0.00    -0.031 C 
BRANCH  21  22
ATOM     22  C   LIG    1        4.718   0.208  -0.812  0.00  0.00    +0.027 C 
BRANCH  22  23
ATOM     23  C   LIG    1        6.008   0.483  -0.042  0.00  0.00    +0.015 C 
BRANCH  23  24
ATOM     24  C   LIG    1        6.767  -0.806   0.182  0.00  0.00    +0.121 C 
BRANCH  24  25
ATOM     25  C   LIG    1        8.021  -0.577   0.922  0.00  0.00    +0.305 C 
ATOM     26  O   LIG    1        8.820  -1.494   1.236  0.00  0.00    -0.251 OA
BRANCH  25  27
ATOM     27  O   LIG    1        8.382   0.717   1.317  0.00  0.00    -0.481 OA
ATOM     28  H   LIG    1        8.427   1.480   0.656  0.00  0.00    +0.295 HD
ENDBRANCH  25  27
ENDBRANCH  24  25
ENDBRANCH  23  24
ENDBRANCH  22  23
ENDBRANCH  21  22
ENDBRANCH  19  20
ENDBRANCH   1  19
TORSDOF 15
