REMARK  Name = molecules/XFDJYSQDBULQSI-QFIPXVFZSA-N.pdb
REMARK                            x       y       z     vdW  Elec       q    Type
REMARK                         _______ _______ _______ _____ _____    ______ ____
ROOT
ATOM      1  C   LIG    1       -0.070   1.223   0.292  0.00  0.00    +0.031 C 
ATOM      2  C   LIG    1       -1.204   0.303   0.314  0.00  0.00    +0.101 C 
ATOM      3  C   LIG    1       -2.398   1.261   0.498  0.00  0.00    +0.231 C 
ATOM      4  O   LIG    1       -3.497   0.975   1.028  0.00  0.00    -0.274 OA
ATOM      5  N   LIG    1       -2.059   2.513  -0.024  0.00  0.00    -0.300 N 
ATOM      6  C   LIG    1       -0.638   2.581  -0.117  0.00  0.00    +0.113 C 
ENDROOT
BRANCH   2   7
ATOM      7  C   LIG    1       -1.327  -0.594   1.470  0.00  0.00    -0.028 A 
ATOM      8  C   LIG    1       -0.374  -0.696   2.429  0.00  0.00    +0.005 A 
ATOM      9  C   LIG    1       -0.519  -1.547   3.522  0.00  0.00    +0.000 A 
ATOM     10  C   LIG    1       -1.638  -2.317   3.671  0.00  0.00    +0.000 A 
ATOM     11  C   LIG    1       -2.610  -2.215   2.696  0.00  0.00    +0.000 A 
ATOM     12  C   LIG    1       -2.482  -1.380   1.611  0.00  0.00    +0.005 A 
ENDBRANCH   2   7
BRANCH   2  13
ATOM     13  C   LIG    1       -1.452  -0.443  -0.947  0.00  0.00    -0.028 A 
ATOM     14  C   LIG    1       -1.297  -1.797  -1.036  0.00  0.00    +0.005 A 
ATOM     15  C   LIG    1       -1.538  -2.435  -2.240  0.00  0.00    +0.000 A 
ATOM     16  C   LIG    1       -1.933  -1.750  -3.366  0.00  0.00    +0.000 A 
ATOM     17  C   LIG    1       -2.088  -0.385  -3.273  0.00  0.00    +0.000 A 
ATOM     18  C   LIG    1       -1.845   0.255  -2.063  0.00  0.00    +0.005 A 
ENDBRANCH   2  13
BRANCH   5  19
ATOM     19  C   LIG    1       -2.914   3.620  -0.434  0.00  0.00    +0.104 C 
ATOM     20  C   LIG    1       -3.194   4.577   0.685  0.00  0.00    +0.024 C 
ENDBRANCH   5  19
BRANCH   1  21
ATOM     21  C   LIG    1        1.124   0.870  -0.532  0.00  0.00    +0.022 C 
BRANCH  21  22
ATOM     22  C   LIG    1        1.833  -0.362  -0.164  0.00  0.00    +0.085 C 
BRANCH  22  23
ATOM     23  N   LIG    1        2.958  -0.719  -0.975  0.00  0.00    -0.298 NA
ATOM     24  C   LIG    1        3.208  -2.111  -0.848  0.00  0.00    +0.112 C 
ATOM     25  C   LIG    1        4.434  -2.486  -0.088  0.00  0.00    +0.175 C 
ATOM     26  O   LIG    1        5.489  -1.610  -0.220  0.00  0.00    -0.377 OA
ATOM     27  C   LIG    1        5.085  -0.361   0.189  0.00  0.00    +0.175 C 
ATOM     28  C   LIG    1        4.092   0.126  -0.881  0.00  0.00    +0.112 C 
ENDBRANCH  22  23
ENDBRANCH  21  22
ENDBRANCH   1  21
TORSDOF 6
