REMARK  Name = molecules/XFLQIRAKKLNXRQ-UUWRZZSWSA-N.pdb
REMARK                            x       y       z     vdW  Elec       q    Type
REMARK                         _______ _______ _______ _____ _____    ______ ____
ROOT
ATOM      1  C   UNK A  0       -1.439   0.724   2.416  0.00  0.00    +0.043 A 
ATOM      2  C   UNK A  0       -0.116   0.590   2.731  0.00  0.00    +0.051 A 
ATOM      3  C   UNK A  0        0.937   0.767   1.807  0.00  0.00    +0.136 A 
ATOM      4  C   UNK A  0        0.592   1.103   0.484  0.00  0.00    +0.075 A 
ATOM      5  C   UNK A  0       -0.743   1.230   0.194  0.00  0.00    +0.113 A 
ATOM      6  S   UNK A  0       -1.078   1.647  -1.500  0.00  0.00    -0.001 S 
ATOM      7  O   UNK A  0       -1.110   3.132  -1.698  0.00  0.00    -0.169 OA
ATOM      8  C   UNK A  0       -2.436   0.774  -2.131  0.00  0.00    +0.180 C 
ATOM      9  C   UNK A  0       -3.805   0.994  -1.500  0.00  0.00    +0.007 C 
ATOM     10  C   UNK A  0       -3.697   1.867  -0.268  0.00  0.00    +0.119 C 
ATOM     11  N   UNK A  0       -3.168   1.178   0.891  0.00  0.00    -0.298 N 
ATOM     12  O   UNK A  0        0.156   1.137  -2.240  0.00  0.00    -0.169 OA
ATOM     13  C   UNK A  0       -1.767   1.047   1.128  0.00  0.00    +0.060 A 
ENDROOT
BRANCH  11  14
ATOM     14  C   UNK A  0       -4.021   0.615   1.873  0.00  0.00    +0.034 A 
ATOM     15  C   UNK A  0       -4.970   1.475   2.403  0.00  0.00    +0.023 A 
ATOM     16  C   UNK A  0       -5.852   1.073   3.370  0.00  0.00    +0.002 A 
ATOM     17  C   UNK A  0       -5.746  -0.256   3.799  0.00  0.00    +0.000 A 
ATOM     18  C   UNK A  0       -4.816  -1.105   3.283  0.00  0.00    +0.002 A 
ATOM     19  C   UNK A  0       -3.933  -0.685   2.308  0.00  0.00    +0.023 A 
ENDBRANCH  11  14
BRANCH   2  20
ATOM     20  S   UNK A  0        0.350   0.190   4.416  0.00  0.00    -0.125 S 
ATOM     21  C   UNK A  0        0.429  -1.607   4.571  0.00  0.00    +0.090 C 
ENDBRANCH   2  20
BRANCH   9  22
ATOM     22  C   UNK A  0       -4.275  -0.355  -1.098  0.00  0.00    +0.010 C 
BRANCH  22  23
ATOM     23  C   UNK A  0       -4.423  -1.356  -2.224  0.00  0.00    +0.000 C 
BRANCH  23  24
ATOM     24  C   UNK A  0       -4.973  -2.647  -1.612  0.00  0.00    -0.003 C 
ATOM     25  C   UNK A  0       -4.026  -3.184  -0.576  0.00  0.00    +0.004 C 
ENDBRANCH  23  24
ENDBRANCH  22  23
ENDBRANCH   9  22
BRANCH   3  26
ATOM     26  O   UNK A  0        2.200   0.601   2.234  0.00  0.00    -0.482 OA
BRANCH  26  27
ATOM     27  C   UNK A  0        3.430   0.684   1.707  0.00  0.00    +0.324 C 
BRANCH  27  28
ATOM     28  C   UNK A  0        3.765  -0.170   0.531  0.00  0.00    +0.251 C 
ATOM     29  O   UNK A  0        2.789  -0.890   0.028  0.00  0.00    -0.272 OA
ATOM     30  N   UNK A  1        4.954  -0.255  -0.047  0.00  0.00    -0.298 N 
ATOM     31  H   UNK A  1        5.628   0.498   0.829  0.00  0.00    +0.150 HD
BRANCH  30  32
ATOM     32  C   UNK A  1        6.082  -0.501  -0.828  0.00  0.00    +0.190 C 
BRANCH  32  33
ATOM     33  C   UNK A  1        7.035  -1.534  -0.368  0.00  0.00    -0.018 A 
ATOM     34  C   UNK A  1        7.506  -1.662   0.928  0.00  0.00    +0.006 A 
ATOM     35  C   UNK A  1        8.402  -2.660   1.301  0.00  0.00    +0.000 A 
ATOM     36  C   UNK A  1        8.838  -3.552   0.369  0.00  0.00    +0.000 A 
ATOM     37  C   UNK A  1        8.395  -3.464  -0.934  0.00  0.00    +0.000 A 
ATOM     38  C   UNK A  1        7.512  -2.475  -1.293  0.00  0.00    +0.006 A 
ENDBRANCH  32  33
BRANCH  32  39
ATOM     39  C   UNK A  1        6.771   0.777  -1.265  0.00  0.00    +0.238 C 
ATOM     40  O   UNK A  1        6.155   1.857  -1.262  0.00  0.00    -0.273 OA
ATOM     41  N   GLY A  2        8.153   0.652  -1.670  0.00  0.00    -0.303 N 
ATOM     42  H   GLY A  2        8.631  -0.258  -1.661  0.00  0.00    +0.149 HD
BRANCH  41  43
ATOM     43  CA  GLY A  2        8.855   1.843  -2.093  0.00  0.00    +0.224 C 
BRANCH  43  44
ATOM     44  C   GLY A  2        8.783   2.813  -0.969  0.00  0.00    +0.322 C 
ATOM     45  OXT GLY A  2        8.196   2.667   0.110  0.00  0.00    -0.249 OA
BRANCH  44  46
ATOM     46  O   GLY A  2        9.468   4.030  -1.177  0.00  0.00    -0.480 OA
ATOM     47  H   GLY A  2       10.453   4.063  -0.904  0.00  0.00    +0.295 HD
ENDBRANCH  44  46
ENDBRANCH  43  44
ENDBRANCH  41  43
ENDBRANCH  32  39
ENDBRANCH  30  32
ENDBRANCH  27  28
ENDBRANCH  26  27
ENDBRANCH   3  26
BRANCH   9  48
ATOM     48  C   UNK A  0       -4.646   1.621  -2.550  0.00  0.00    +0.010 C 
BRANCH  48  49
ATOM     49  C   UNK A  0       -6.007   2.064  -2.325  0.00  0.00    +0.000 C 
BRANCH  49  50
ATOM     50  C   UNK A  0       -7.122   1.175  -1.931  0.00  0.00    -0.003 C 
ATOM     51  C   UNK A  0       -7.422   0.139  -2.978  0.00  0.00    +0.004 C 
ENDBRANCH  49  50
ENDBRANCH  48  49
ENDBRANCH   9  48
TORSDOF 17
