REMARK  Name = molecules/XGMPVBXKDAHORN-RBWIMXSLSA-N.pdb
REMARK                            x       y       z     vdW  Elec       q    Type
REMARK                         _______ _______ _______ _____ _____    ______ ____
ROOT
ATOM      1  C   LIG    1        1.022   1.042   1.632  0.00  0.00    +0.015 C 
ATOM      2  C   LIG    1        0.677   0.370   0.364  0.00  0.00    +0.013 C 
ATOM      3  C   LIG    1       -0.343  -0.741   0.482  0.00  0.00    +0.008 C 
ATOM      4  C   LIG    1        0.300  -1.622   1.493  0.00  0.00    +0.052 C 
ATOM      5  C   LIG    1        1.740  -1.616   0.992  0.00  0.00    +0.216 C 
ATOM      6  C   LIG    1       -1.684  -0.190   0.751  0.00  0.00    +0.034 C 
ATOM      7  C   LIG    1       -2.631  -1.266   1.182  0.00  0.00    +0.011 C 
ATOM      8  C   LIG    1       -4.085  -0.901   1.123  0.00  0.00    +0.032 C 
ATOM      9  C   LIG    1       -4.355  -0.385  -0.285  0.00  0.00    -0.053 C 
ATOM     10  C   LIG    1       -3.543   0.753  -0.690  0.00  0.00    +0.044 C 
ATOM     11  C   LIG    1       -3.989   1.985   0.152  0.00  0.00    +0.023 C 
ATOM     12  C   LIG    1       -3.854   1.180  -2.059  0.00  0.00    -0.009 C 
ATOM     13  C   LIG    1       -4.750   0.619  -2.834  0.00  0.00    +0.047 C 
ATOM     14  C   LIG    1       -5.552  -0.517  -2.407  0.00  0.00    +0.179 C 
ATOM     15  O   LIG    1       -6.405  -1.074  -3.105  0.00  0.00    -0.288 OA
ATOM     16  C   LIG    1       -5.249  -0.956  -1.038  0.00  0.00    +0.051 C 
ATOM     17  C   LIG    1       -2.075   0.513  -0.517  0.00  0.00    +0.153 C 
ATOM     18  C   LIG    1       -1.182   1.685  -0.680  0.00  0.00    +0.154 C 
ATOM     19  F   LIG    1       -1.739  -0.370  -1.563  0.00  0.00    -0.238 F 
ATOM     20  C   LIG    1        1.869  -0.528  -0.024  0.00  0.00    +0.169 C 
ATOM     21  C   LIG    1        0.275   1.259  -0.755  0.00  0.00    +0.045 C 
ENDROOT
BRANCH  18  22
ATOM     22  O   LIG    1       -1.267   2.695   0.224  0.00  0.00    -0.389 OA
ATOM     23  H   LIG    1       -1.611   2.528   1.104  0.00  0.00    +0.210 HD
ENDBRANCH  18  22
BRANCH  20  24
ATOM     24  C   LIG    1        3.084   0.266   0.021  0.00  0.00    +0.206 C 
ATOM     25  O   LIG    1        3.478   0.738   1.065  0.00  0.00    -0.291 OA
BRANCH  24  26
ATOM     26  C   LIG    1        3.900   0.539  -1.203  0.00  0.00    +0.309 C 
BRANCH  26  27
ATOM     27  O   LIG    1        5.030   1.335  -0.905  0.00  0.00    -0.457 OA
BRANCH  27  28
ATOM     28  C   LIG    1        4.938   2.610  -0.364  0.00  0.00    +0.304 C 
ATOM     29  C   LIG    1        6.167   3.421  -0.063  0.00  0.00    +0.136 C 
ATOM     30  O   LIG    1        3.786   3.059  -0.135  0.00  0.00    -0.251 OA
ENDBRANCH  27  28
ENDBRANCH  26  27
ENDBRANCH  24  26
ENDBRANCH  20  24
BRANCH  20  31
ATOM     31  O   LIG    1        1.692  -0.991  -1.332  0.00  0.00    -0.377 OA
ATOM     32  H   LIG    1        2.518  -1.476  -1.572  0.00  0.00    +0.211 HD
ENDBRANCH  20  31
BRANCH   5  33
ATOM     33  O   LIG    1        2.147  -2.876   0.535  0.00  0.00    -0.458 OA
BRANCH  33  34
ATOM     34  C   LIG    1        3.160  -3.627   1.100  0.00  0.00    +0.304 C 
ATOM     35  O   LIG    1        3.751  -3.141   2.091  0.00  0.00    -0.251 OA
ATOM     36  C   LIG    1        3.586  -4.952   0.618  0.00  0.00    +0.136 C 
ENDBRANCH  33  34
ENDBRANCH   5  33
TORSDOF 8
