REMARK  Name = molecules/XHOJAWVAWFHGHL-UHFFFAOYSA-N.pdb
REMARK                            x       y       z     vdW  Elec       q    Type
REMARK                         _______ _______ _______ _____ _____    ______ ____
ROOT
ATOM      1  N   LIG    1        0.912  -0.814  -0.135  0.00  0.00    -0.268 N 
ATOM      2  C   LIG    1        2.059  -0.090   0.250  0.00  0.00    +0.224 C 
ATOM      3  O   LIG    1        3.176  -0.639   0.218  0.00  0.00    -0.275 OA
ENDROOT
BRANCH   1   4
ATOM      4  C   LIG    1        1.025  -2.161  -0.560  0.00  0.00    +0.037 A 
ATOM      5  C   LIG    1        1.071  -3.136   0.401  0.00  0.00    +0.025 A 
ATOM      6  C   LIG    1        1.184  -4.483   0.054  0.00  0.00    +0.022 A 
ATOM      7  C   LIG    1        1.249  -4.831  -1.276  0.00  0.00    +0.041 A 
ATOM      8 CL   LIG    1        1.391  -6.527  -1.727  0.00  0.00    -0.084 Cl
ATOM      9  C   LIG    1        1.202  -3.842  -2.264  0.00  0.00    +0.022 A 
ATOM     10  C   LIG    1        1.091  -2.524  -1.875  0.00  0.00    +0.025 A 
ENDBRANCH   1   4
BRANCH   1  11
ATOM     11  C   LIG    1       -0.381  -0.174  -0.093  0.00  0.00    +0.084 C 
ATOM     12  C   LIG    1       -1.345  -0.879   0.831  0.00  0.00    +0.038 C 
ATOM     13  C   LIG    1       -2.685  -0.273   0.803  0.00  0.00    +0.086 C 
ATOM     14  N   LIG    1       -3.002   0.641  -0.199  0.00  0.00    -0.300 NA
ATOM     15  C   LIG    1       -2.205   0.758  -1.341  0.00  0.00    +0.086 C 
ATOM     16  C   LIG    1       -1.047  -0.201  -1.454  0.00  0.00    +0.038 C 
BRANCH  14  17
ATOM     17  C   LIG    1       -4.385   0.817  -0.485  0.00  0.00    +0.050 C 
ATOM     18  C   LIG    1       -5.288   0.596   0.704  0.00  0.00    +0.024 C 
ATOM     19  C   LIG    1       -4.598   2.221  -1.008  0.00  0.00    +0.024 C 
ENDBRANCH  14  17
ENDBRANCH   1  11
BRANCH   2  20
ATOM     20  C   LIG    1        1.931   1.304   0.685  0.00  0.00    +0.131 C 
BRANCH  20  21
ATOM     21  C   LIG    1        3.265   1.849   1.039  0.00  0.00    -0.039 A 
ATOM     22  C   LIG    1        3.797   1.790   2.308  0.00  0.00    +0.004 A 
ATOM     23  C   LIG    1        5.045   2.312   2.574  0.00  0.00    +0.000 A 
ATOM     24  C   LIG    1        5.788   2.903   1.588  0.00  0.00    +0.000 A 
ATOM     25  C   LIG    1        5.239   2.958   0.304  0.00  0.00    +0.000 A 
ATOM     26  C   LIG    1        3.993   2.438   0.030  0.00  0.00    +0.004 A 
ENDBRANCH  20  21
ENDBRANCH   2  20
TORSDOF 5
