REMARK  Name = molecules/XIQVNETUBQGFHX-QFIPXVFZSA-N.pdb
REMARK                            x       y       z     vdW  Elec       q    Type
REMARK                         _______ _______ _______ _____ _____    ______ ____
ROOT
ATOM      1  C   LIG    1       -2.568   0.715  -1.068  0.00  0.00    +0.190 C 
ENDROOT
BRANCH   1   2
ATOM      2  C   LIG    1       -2.785  -0.369  -0.030  0.00  0.00    +0.036 C 
ATOM      3  C   LIG    1       -4.076  -0.159   0.689  0.00  0.00    +0.007 C 
ATOM      4  C   LIG    1       -4.340  -1.213   1.734  0.00  0.00    +0.000 C 
ATOM      5  C   LIG    1       -4.098  -2.609   1.239  0.00  0.00    +0.000 C 
ATOM      6  C   LIG    1       -2.917  -2.753   0.349  0.00  0.00    +0.000 C 
ATOM      7  C   LIG    1       -2.933  -1.718  -0.753  0.00  0.00    +0.007 C 
ENDBRANCH   1   2
BRANCH   1   8
ATOM      8  C   LIG    1       -2.554   2.033  -0.441  0.00  0.00    -0.005 A 
ATOM      9  C   LIG    1       -1.543   2.397   0.403  0.00  0.00    +0.007 A 
ATOM     10  C   LIG    1       -1.520   3.636   1.026  0.00  0.00    +0.000 A 
ATOM     11  C   LIG    1       -2.521   4.550   0.817  0.00  0.00    +0.000 A 
ATOM     12  C   LIG    1       -3.537   4.155  -0.045  0.00  0.00    +0.000 A 
ATOM     13  C   LIG    1       -3.577   2.933  -0.671  0.00  0.00    +0.007 A 
ENDBRANCH   1   8
BRANCH   1  14
ATOM     14  C   LIG    1       -1.265   0.420  -1.703  0.00  0.00    +0.345 C 
ATOM     15  O   LIG    1       -1.218   0.122  -2.960  0.00  0.00    -0.247 OA
BRANCH  14  16
ATOM     16  O   LIG    1       -0.042   0.428  -1.078  0.00  0.00    -0.449 OA
BRANCH  16  17
ATOM     17  C   LIG    1        1.121   0.127  -1.808  0.00  0.00    +0.320 C 
BRANCH  17  18
ATOM     18  C   LIG    1        2.245   0.246  -0.845  0.00  0.00    -0.060 C 
ATOM     19  C   LIG    1        3.156   0.367  -0.065  0.00  0.00    -0.083 C 
BRANCH  19  20
ATOM     20  C   LIG    1        4.259   0.545   0.877  0.00  0.00    +0.174 C 
BRANCH  20  21
ATOM     21  N   LIG    1        5.244  -0.455   0.863  0.00  0.00    -0.292 NA
BRANCH  21  22
ATOM     22  C   LIG    1        4.932  -1.749   1.312  0.00  0.00    +0.082 C 
ATOM     23  C   LIG    1        3.967  -2.412   0.352  0.00  0.00    +0.020 C 
ENDBRANCH  21  22
BRANCH  21  24
ATOM     24  C   LIG    1        6.442  -0.241   0.149  0.00  0.00    +0.082 C 
ATOM     25  C   LIG    1        6.148  -0.223  -1.333  0.00  0.00    +0.020 C 
ENDBRANCH  21  24
ENDBRANCH  20  21
ENDBRANCH  19  20
ENDBRANCH  17  18
ENDBRANCH  16  17
ENDBRANCH  14  16
ENDBRANCH   1  14
BRANCH   1  26
ATOM     26  O   LIG    1       -3.529   0.610  -2.092  0.00  0.00    -0.373 OA
ATOM     27  H   LIG    1       -4.432   0.713  -1.781  0.00  0.00    +0.211 HD
ENDBRANCH   1  26
TORSDOF 11
