REMARK  Name = molecules/XIURVHNZVLADCM-IUODEOHRSA-N.pdb
REMARK                            x       y       z     vdW  Elec       q    Type
REMARK                         _______ _______ _______ _____ _____    ______ ____
ROOT
ATOM      1  CA  LIG    1       -2.449   0.884  -1.121  0.00  0.00    +0.125 C 
ATOM      2  C   LIG    1       -2.649   1.164   0.162  0.00  0.00    +0.006 C 
ATOM      3  C   LIG    1       -1.524   0.923   1.163  0.00  0.00    +0.107 C 
ATOM      4  S   LIG    1       -0.864  -0.719   0.826  0.00  0.00    -0.131 S 
ATOM      5  C   LIG    1       -0.702  -0.880  -0.942  0.00  0.00    +0.169 C 
ATOM      6  CA  LIG    1        0.611  -0.480  -1.568  0.00  0.00    +0.191 C 
ATOM      7  C   LIG    1       -0.153   0.363  -2.487  0.00  0.00    +0.244 C 
ATOM      8  O   LIG    1        0.055   0.902  -3.600  0.00  0.00    -0.273 OA
ATOM      9  N   LIG    1       -1.231   0.306  -1.577  0.00  0.00    -0.249 N 
ENDROOT
BRANCH   6  10
ATOM     10  N   LIG    1        1.522   0.141  -0.663  0.00  0.00    -0.301 N 
ATOM     11  H   LIG    1        1.160   0.997  -0.154  0.00  0.00    +0.150 HD
ATOM     12  C   LIG    1        2.831  -0.282  -0.401  0.00  0.00    +0.219 C 
ATOM     13  O   LIG    1        3.282  -1.290  -0.992  0.00  0.00    -0.275 OA
BRANCH  12  14
ATOM     14  C   LIG    1        3.699   0.430   0.556  0.00  0.00    +0.138 C 
BRANCH  14  15
ATOM     15  C   LIG    1        5.038  -0.263   0.619  0.00  0.00    -0.001 A 
ATOM     16  S   LIG    1        5.569  -1.530   1.629  0.00  0.00    -0.101 S 
ATOM     17  C   LIG    1        7.162  -1.694   1.050  0.00  0.00    +0.045 A 
ATOM     18  C   LIG    1        7.233  -0.739   0.070  0.00  0.00    +0.008 A 
ATOM     19  C   LIG    1        6.138  -0.002  -0.151  0.00  0.00    +0.011 A 
ENDBRANCH  14  15
ENDBRANCH  12  14
ENDBRANCH   6  10
BRANCH   1  20
ATOM     20  C   LIG    1       -3.484   1.153  -2.101  0.00  0.00    +0.351 C 
ATOM     21  OXT LIG    1       -4.608   1.633  -1.850  0.00  0.00    -0.244 OA
BRANCH  20  22
ATOM     22  O   LIG    1       -3.286   0.878  -3.476  0.00  0.00    -0.476 OA
ATOM     23  H   LIG    1       -3.135  -0.094  -3.713  0.00  0.00    +0.295 HD
ENDBRANCH  20  22
ENDBRANCH   1  20
BRANCH   2  24
ATOM     24  C   LIG    1       -3.863   1.744   0.749  0.00  0.00    +0.266 C 
BRANCH  24  25
ATOM     25  O   LIG    1       -4.334   0.768   1.705  0.00  0.00    -0.460 OA
BRANCH  25  26
ATOM     26  C   LIG    1       -4.681  -0.511   1.330  0.00  0.00    +0.304 C 
ATOM     27  C   LIG    1       -5.167  -1.505   2.345  0.00  0.00    +0.136 C 
ATOM     28  O   LIG    1       -4.606  -0.887   0.152  0.00  0.00    -0.251 OA
ENDBRANCH  25  26
ENDBRANCH  24  25
ENDBRANCH   2  24
TORSDOF 8
