REMARK  Name = molecules/XIUUSFJTJXFNGH-OLQVQODUSA-N.pdb
REMARK                            x       y       z     vdW  Elec       q    Type
REMARK                         _______ _______ _______ _____ _____    ______ ____
ROOT
ATOM      1  N   LIG    1        0.663   1.631  -0.509  0.00  0.00    -0.266 N 
ATOM      2  C   LIG    1        1.628   0.912   0.262  0.00  0.00    +0.307 C 
ATOM      3  O   LIG    1        2.625   1.443   0.841  0.00  0.00    -0.252 OA
ATOM      4  N   LIG    1        1.269  -0.479   0.258  0.00  0.00    -0.266 N 
ATOM      5  C   LIG    1        1.769  -1.493   1.163  0.00  0.00    +0.135 C 
ATOM      6  C   LIG    1        0.325  -0.621  -0.822  0.00  0.00    +0.207 C 
ATOM      7  N   LIG    1       -0.722  -1.552  -0.546  0.00  0.00    -0.266 N 
ATOM      8  C   LIG    1       -1.618  -0.898   0.344  0.00  0.00    +0.307 C 
ATOM      9  O   LIG    1       -2.590  -1.464   0.928  0.00  0.00    -0.252 OA
ATOM     10  N   LIG    1       -1.225   0.488   0.454  0.00  0.00    -0.266 N 
ATOM     11  C   LIG    1       -1.604   1.364   1.531  0.00  0.00    +0.135 C 
ATOM     12  C   LIG    1       -0.829  -2.893  -1.080  0.00  0.00    +0.135 C 
ATOM     13  C   LIG    1       -0.417   0.719  -0.720  0.00  0.00    +0.207 C 
ATOM     14  C   LIG    1        0.725   2.995  -0.994  0.00  0.00    +0.135 C 
ENDROOT
TORSDOF 0
