REMARK  Name = molecules/XJGFWWJLMVZSIG-UHFFFAOYSA-N.pdb
REMARK                            x       y       z     vdW  Elec       q    Type
REMARK                         _______ _______ _______ _____ _____    ______ ____
ROOT
ATOM      1  C   LIG    1        0.013  -0.956   0.280  0.00  0.00    +0.043 A 
ATOM      2  C   LIG    1       -1.203  -0.295   0.133  0.00  0.00    +0.022 A 
ATOM      3  C   LIG    1       -2.414  -0.914   0.362  0.00  0.00    +0.012 A 
ATOM      4  C   LIG    1       -3.619  -0.231   0.209  0.00  0.00    +0.001 A 
ATOM      5  C   LIG    1       -3.591   1.096  -0.182  0.00  0.00    +0.002 A 
ATOM      6  C   LIG    1       -2.370   1.691  -0.404  0.00  0.00    +0.028 A 
ATOM      7  C   LIG    1       -1.167   1.035  -0.259  0.00  0.00    +0.073 A 
ATOM      8  N   LIG    1        0.019   1.628  -0.479  0.00  0.00    -0.247 NA
ATOM      9  C   LIG    1        1.201   1.001  -0.341  0.00  0.00    +0.073 A 
ATOM     10  C   LIG    1        2.407   1.650  -0.578  0.00  0.00    +0.028 A 
ATOM     11  C   LIG    1        3.598   0.974  -0.426  0.00  0.00    +0.002 A 
ATOM     12  C   LIG    1        3.603  -0.359  -0.035  0.00  0.00    +0.001 A 
ATOM     13  C   LIG    1        2.408  -0.998   0.199  0.00  0.00    +0.012 A 
ATOM     14  C   LIG    1        1.216  -0.322   0.047  0.00  0.00    +0.022 A 
ENDROOT
BRANCH   1  15
ATOM     15  N   LIG    1       -0.037  -2.318   0.682  0.00  0.00    -0.357 N 
ATOM     16  H   LIG    1        0.344  -2.555   1.623  0.00  0.00    +0.142 HD
ATOM     17  H   LIG    1       -0.450  -3.004   0.016  0.00  0.00    +0.142 HD
ENDBRANCH   1  15
TORSDOF 1
