REMARK  Name = molecules/XJGVXQDUIWGIRW-UHFFFAOYSA-N.pdb
REMARK                            x       y       z     vdW  Elec       q    Type
REMARK                         _______ _______ _______ _____ _____    ______ ____
ROOT
ATOM      1 CL   LIG    1        0.743   4.303  -1.811  0.00  0.00    -0.084 Cl
ATOM      2  C   LIG    1       -0.443   3.265  -1.016  0.00  0.00    +0.042 A 
ATOM      3  C   LIG    1       -1.708   3.713  -0.698  0.00  0.00    +0.023 A 
ATOM      4  C   LIG    1       -2.606   2.873  -0.077  0.00  0.00    +0.048 A 
ATOM      5  C   LIG    1       -2.214   1.587   0.215  0.00  0.00    +0.144 A 
ATOM      6  O   LIG    1       -3.212   0.829   0.845  0.00  0.00    -0.451 OA
ATOM      7  C   LIG    1       -3.408  -0.557   0.692  0.00  0.00    +0.179 A 
ATOM      8  C   LIG    1       -4.716  -0.944   0.770  0.00  0.00    +0.051 A 
ATOM      9  C   LIG    1       -5.007  -2.289   0.631  0.00  0.00    +0.004 A 
ATOM     10  C   LIG    1       -4.037  -3.247   0.420  0.00  0.00    +0.004 A 
ATOM     11  C   LIG    1       -2.735  -2.827   0.347  0.00  0.00    +0.059 A 
ATOM     12  C   LIG    1       -2.394  -1.497   0.479  0.00  0.00    +0.218 A 
ATOM     13  N   LIG    1       -0.979  -1.296   0.368  0.00  0.00    -0.038 NA
ATOM     14  C   LIG    1       -0.337  -0.190   0.123  0.00  0.00    +0.325 C 
ATOM     15  C   LIG    1       -0.945   1.121  -0.098  0.00  0.00    +0.109 A 
ATOM     16  C   LIG    1       -0.062   1.979  -0.719  0.00  0.00    +0.039 A 
ENDROOT
BRANCH  14  17
ATOM     17  N   LIG    1        1.084  -0.243   0.062  0.00  0.00    -0.218 N 
ATOM     18  C   LIG    1        1.849   0.252   1.160  0.00  0.00    +0.241 C 
ATOM     19  C   LIG    1        3.294  -0.091   1.137  0.00  0.00    +0.128 C 
ATOM     20  N   LIG    1        3.733  -0.806  -0.022  0.00  0.00    -0.298 NA
ATOM     21  C   LIG    1        5.167  -0.588  -0.201  0.00  0.00    +0.105 C 
ATOM     22  C   LIG    1        3.090  -0.418  -1.243  0.00  0.00    +0.128 C 
ATOM     23  C   LIG    1        1.637  -0.815  -1.151  0.00  0.00    +0.241 C 
ENDBRANCH  14  17
TORSDOF 1
