REMARK  Name = molecules/XJSFLOJWULLJQS-OMELXPMGSA-N.pdb
REMARK                            x       y       z     vdW  Elec       q    Type
REMARK                         _______ _______ _______ _____ _____    ______ ____
ROOT
ATOM      1  O   LIG    1       -2.040  -0.157  -0.039  0.00  0.00    -0.343 OA
ENDROOT
BRANCH   1   2
ATOM      2  C   LIG    1       -2.823  -1.283   0.105  0.00  0.00    +0.157 C 
ATOM      3  C   LIG    1       -3.827  -1.182   1.255  0.00  0.00    +0.028 C 
ATOM      4  C   LIG    1       -3.735   0.173   1.896  0.00  0.00    +0.012 C 
ATOM      5  C   LIG    1       -4.611   0.475   3.038  0.00  0.00    +0.019 C 
ATOM      6  C   LIG    1       -3.875   1.531   3.906  0.00  0.00    +0.010 C 
ATOM      7  C   LIG    1       -5.982   1.049   2.650  0.00  0.00    +0.140 C 
ATOM      8  C   LIG    1       -7.056   0.048   2.808  0.00  0.00    +0.004 C 
ATOM      9  C   LIG    1       -8.316   0.174   2.464  0.00  0.00    -0.002 C 
ATOM     10  C   LIG    1       -9.033   1.249   1.855  0.00  0.00    -0.004 C 
ATOM     11  C   LIG    1       -9.151   1.635   0.617  0.00  0.00    -0.023 C 
ATOM     12  C   LIG    1       -8.539   1.029  -0.597  0.00  0.00    +0.071 C 
ATOM     13  C   LIG    1       -8.633  -0.445  -0.649  0.00  0.00    +0.177 C 
ATOM     14  O   LIG    1       -7.513  -1.195  -0.850  0.00  0.00    -0.461 OA
ATOM     15  C   LIG    1       -6.457  -1.224  -1.674  0.00  0.00    +0.311 C 
ATOM     16  C   LIG    1       -5.376  -0.245  -1.855  0.00  0.00    +0.167 C 
ATOM     17  C   LIG    1       -4.029  -0.862  -2.126  0.00  0.00    +0.218 C 
ATOM     18  O   LIG    1       -6.331  -2.262  -2.449  0.00  0.00    -0.251 OA
ATOM     19  C   LIG    1       -9.706  -0.869  -1.666  0.00  0.00    +0.052 C 
ATOM     20  C   LIG    1       -3.472  -1.785  -1.152  0.00  0.00    +0.188 C 
BRANCH  20  21
ATOM     21  O   LIG    1       -4.389  -2.769  -0.711  0.00  0.00    -0.374 OA
ATOM     22  C   LIG    1       -4.025  -4.047  -1.053  0.00  0.00    +0.194 C 
ENDBRANCH  20  21
BRANCH   7  23
ATOM     23  O   LIG    1       -5.824   1.534   1.363  0.00  0.00    -0.387 OA
ATOM     24  H   LIG    1       -5.763   2.520   1.324  0.00  0.00    +0.210 HD
ENDBRANCH   7  23
BRANCH  17  25
ATOM     25  O   LIG    1       -3.119   0.079  -2.619  0.00  0.00    -0.458 OA
BRANCH  25  26
ATOM     26  C   LIG    1       -2.677   0.166  -3.908  0.00  0.00    +0.304 C 
ATOM     27  C   LIG    1       -1.706   1.219  -4.359  0.00  0.00    +0.136 C 
ATOM     28  O   LIG    1       -3.084  -0.640  -4.743  0.00  0.00    -0.251 OA
ENDBRANCH  25  26
ENDBRANCH  17  25
BRANCH   3  29
ATOM     29  C   LIG    1       -3.614  -2.231   2.305  0.00  0.00    +0.076 C 
BRANCH  29  30
ATOM     30  C   LIG    1       -2.270  -2.130   2.965  0.00  0.00    +0.223 C 
ATOM     31  O   LIG    1       -1.825  -3.023   3.654  0.00  0.00    -0.301 OA
ENDBRANCH  29  30
ENDBRANCH   3  29
ENDBRANCH   1   2
BRANCH   1  32
ATOM     32  C   LIG    1       -0.680  -0.366   0.093  0.00  0.00    +0.281 C 
ATOM     33  O   LIG    1       -0.121   0.214   1.238  0.00  0.00    -0.343 OA
ATOM     34  C   LIG    1        1.189  -0.357   1.283  0.00  0.00    +0.149 C 
ATOM     35  C   LIG    1        1.735  -0.452   2.659  0.00  0.00    +0.041 C 
ATOM     36  C   LIG    1        2.002   0.643   0.463  0.00  0.00    +0.169 C 
ATOM     37  C   LIG    1        1.131   1.163  -0.672  0.00  0.00    +0.121 C 
ATOM     38  C   LIG    1        0.115   0.109  -1.068  0.00  0.00    +0.190 C 
BRANCH  37  39
ATOM     39  N   LIG    1        0.548   2.400  -0.255  0.00  0.00    -0.301 NA
ATOM     40  C   LIG    1        1.478   3.348   0.317  0.00  0.00    +0.105 C 
ATOM     41  C   LIG    1       -0.234   3.023  -1.316  0.00  0.00    +0.105 C 
ENDBRANCH  37  39
BRANCH  38  42
ATOM     42  O   LIG    1        0.892  -0.980  -1.533  0.00  0.00    -0.385 OA
ATOM     43  H   LIG    1        0.896  -0.991  -2.504  0.00  0.00    +0.210 HD
ENDBRANCH  38  42
BRANCH  36  44
ATOM     44  O   LIG    1        3.084   0.001  -0.071  0.00  0.00    -0.344 OA
BRANCH  44  45
ATOM     45  C   LIG    1        4.297   0.458   0.368  0.00  0.00    +0.254 C 
ATOM     46  C   LIG    1        5.164  -0.693   0.781  0.00  0.00    +0.099 C 
ATOM     47  C   LIG    1        6.332  -0.757  -0.202  0.00  0.00    +0.107 C 
ATOM     48  C   LIG    1        7.241  -1.908   0.091  0.00  0.00    +0.045 C 
ATOM     49  C   LIG    1        7.122   0.538   0.001  0.00  0.00    +0.236 C 
ATOM     50  C   LIG    1        6.130   1.674  -0.168  0.00  0.00    +0.162 C 
ATOM     51  C   LIG    1        6.003   2.406   1.125  0.00  0.00    +0.042 C 
ATOM     52  O   LIG    1        4.918   1.194  -0.679  0.00  0.00    -0.345 OA
BRANCH  47  53
ATOM     53  O   LIG    1        5.889  -0.815  -1.515  0.00  0.00    -0.385 OA
ATOM     54  H   LIG    1        6.318  -0.094  -2.044  0.00  0.00    +0.210 HD
ENDBRANCH  47  53
BRANCH  49  55
ATOM     55  O   LIG    1        8.130   0.595  -0.977  0.00  0.00    -0.456 OA
BRANCH  55  56
ATOM     56  C   LIG    1        9.499   0.571  -0.679  0.00  0.00    +0.308 C 
ATOM     57  O   LIG    1        9.817   0.481   0.525  0.00  0.00    -0.251 OA
BRANCH  56  58
ATOM     58  C   LIG    1       10.533   0.650  -1.726  0.00  0.00    +0.123 C 
BRANCH  58  59
ATOM     59  C   LIG    1       10.868  -0.690  -2.291  0.00  0.00    -0.007 C 
ATOM     60  C   LIG    1       11.319  -1.660  -1.225  0.00  0.00    +0.008 C 
ATOM     61  C   LIG    1       11.919  -0.599  -3.354  0.00  0.00    +0.008 C 
ENDBRANCH  58  59
ENDBRANCH  56  58
ENDBRANCH  55  56
ENDBRANCH  49  55
ENDBRANCH  44  45
ENDBRANCH  36  44
ENDBRANCH   1  32
TORSDOF 17
