REMARK  Name = molecules/XKFIQZCHJUUSBA-HNNXBMFYSA-N.pdb
REMARK                            x       y       z     vdW  Elec       q    Type
REMARK                         _______ _______ _______ _____ _____    ______ ____
ROOT
ATOM      1  C   LIG    1        0.743  -1.505  -0.464  0.00  0.00    +0.114 A 
ATOM      2  C   LIG    1        1.667  -0.629   0.055  0.00  0.00    +0.078 A 
ATOM      3  C   LIG    1        2.856  -0.843  -0.573  0.00  0.00    +0.168 A 
ATOM      4  O   LIG    1        2.657  -1.798  -1.426  0.00  0.00    -0.354 OA
ATOM      5  N   LIG    1        1.411  -2.219  -1.391  0.00  0.00    -0.080 NA
ENDROOT
BRANCH   3   6
ATOM      6  C   LIG    1        4.093  -0.126  -0.322  0.00  0.00    +0.020 A 
ATOM      7  C   LIG    1        4.149   0.864   0.670  0.00  0.00    +0.011 A 
ATOM      8  C   LIG    1        5.353   1.508   0.864  0.00  0.00    +0.001 A 
ATOM      9  C   LIG    1        6.464   1.206   0.123  0.00  0.00    +0.000 A 
ATOM     10  C   LIG    1        6.369   0.234  -0.837  0.00  0.00    +0.001 A 
ATOM     11  C   LIG    1        5.197  -0.439  -1.071  0.00  0.00    +0.011 A 
ENDBRANCH   3   6
BRANCH   1  12
ATOM     12  C   LIG    1       -0.697  -1.611  -0.067  0.00  0.00    +0.180 C 
BRANCH  12  13
ATOM     13  O   LIG    1       -0.734  -1.601   1.322  0.00  0.00    -0.384 OA
ATOM     14  H   LIG    1        0.068  -1.129   1.639  0.00  0.00    +0.210 HD
ENDBRANCH  12  13
BRANCH  12  15
ATOM     15  C   LIG    1       -1.352  -0.366  -0.576  0.00  0.00    +0.122 C 
BRANCH  15  16
ATOM     16  N   LIG    1       -2.687  -0.135  -0.240  0.00  0.00    -0.300 NA
ATOM     17  C   LIG    1       -2.995   0.444   1.016  0.00  0.00    +0.084 C 
ATOM     18  C   LIG    1       -4.123   1.442   0.782  0.00  0.00    +0.015 C 
ATOM     19  C   LIG    1       -4.690   1.343  -0.598  0.00  0.00    +0.002 C 
ATOM     20  C   LIG    1       -4.868  -0.033  -1.136  0.00  0.00    +0.015 C 
ATOM     21  C   LIG    1       -3.706  -0.956  -0.763  0.00  0.00    +0.084 C 
ENDBRANCH  15  16
ENDBRANCH  12  15
ENDBRANCH   1  12
TORSDOF 5
