REMARK  Name = molecules/XKNKHVGWJDPIRJ-UHFFFAOYSA-N.pdb
REMARK                            x       y       z     vdW  Elec       q    Type
REMARK                         _______ _______ _______ _____ _____    ______ ____
ROOT
ATOM      1 AS   LIG    1       -2.660   0.140   0.377  0.00  0.00    +0.000 As
ATOM      2  O   LIG    1       -3.050   0.442   1.925  0.00  0.00    +0.000 OA
ENDROOT
BRANCH   1   3
ATOM      3  O   LIG    1       -3.352  -1.450  -0.234  0.00  0.00    +0.000 OA
ATOM      4  H   LIG    1       -3.236  -1.434  -1.235  0.00  0.00    +0.000 HD
ENDBRANCH   1   3
BRANCH   1   5
ATOM      5  O   LIG    1       -3.304   1.467  -0.753  0.00  0.00    +0.000 OA
ATOM      6  H   LIG    1       -2.521   2.038  -0.963  0.00  0.00    +0.000 HD
ENDBRANCH   1   5
TORSDOF 2
REMARK  Name = molecules/XKNKHVGWJDPIRJ-UHFFFAOYSA-N.pdb
REMARK                            x       y       z     vdW  Elec       q    Type
REMARK                         _______ _______ _______ _____ _____    ______ ____
ROOT
ATOM      1  C   LIG    1       -0.711   0.033   0.236  0.00  0.00    +0.000 A 
ATOM      2  C   LIG    1        0.084   0.506   1.236  0.00  0.00    +0.000 A 
ATOM      3  C   LIG    1        1.446   0.421   1.115  0.00  0.00    +0.000 A 
ATOM      4  C   LIG    1        2.071  -0.127   0.018  0.00  0.00    +0.000 A 
ATOM      5  C   LIG    1        1.245  -0.609  -0.999  0.00  0.00    +0.000 A 
ATOM      6  C   LIG    1       -0.126  -0.527  -0.886  0.00  0.00    +0.000 A 
ENDROOT
BRANCH   4   7
ATOM      7  N   LIG    1        3.475  -0.199  -0.073  0.00  0.00    +0.000 N 
ATOM      8  H   LIG    1        3.965  -0.939   0.470  0.00  0.00    +0.000 HD
ATOM      9  H   LIG    1        4.016   0.464  -0.662  0.00  0.00    +0.000 HD
ENDBRANCH   4   7
TORSDOF 1
