REMARK  Name = molecules/XLFWDASMENKTKL-UHFFFAOYSA-N.pdb
REMARK                            x       y       z     vdW  Elec       q    Type
REMARK                         _______ _______ _______ _____ _____    ______ ____
ROOT
ATOM      1  N   LIG    1        1.107  -0.248   0.474  0.00  0.00    -0.146 N 
ATOM      2  N   LIG    1        0.330  -1.269   0.729  0.00  0.00    +0.090 NA
ATOM      3  O   LIG    1       -0.922  -0.912   0.516  0.00  0.00    -0.347 OA
ATOM      4  C   LIG    1       -0.979   0.332   0.124  0.00  0.00    +0.255 C 
ATOM      5  C   LIG    1        0.331   0.780   0.090  0.00  0.00    +0.179 C 
ENDROOT
BRANCH   1   8
ATOM      6  C   LIG    1        4.650   0.816   0.737  0.00  0.00    +0.177 C 
ATOM      7  C   LIG    1        3.245   1.019   0.253  0.00  0.00    +0.135 C 
ATOM      8  N   LIG    1        2.494  -0.180   0.566  0.00  0.00    -0.204 NA
ATOM      9  C   LIG    1        3.292  -1.337   0.991  0.00  0.00    +0.135 C 
ATOM     10  C   LIG    1        4.476  -1.380   0.026  0.00  0.00    +0.177 C 
ATOM     11  O   LIG    1        5.277  -0.284   0.206  0.00  0.00    -0.377 OA
ENDBRANCH   1   8
BRANCH   4  12
ATOM     12  N   LIG    1       -2.030   1.017  -0.175  0.00  0.00    -0.105 NA
ATOM     13  C   LIG    1       -3.303   0.388  -0.083  0.00  0.00    +0.427 C 
ATOM     14  O   LIG    1       -3.655  -0.160   0.982  0.00  0.00    -0.224 OA
BRANCH  13  15
ATOM     15  O   LIG    1       -4.153   0.386  -1.177  0.00  0.00    -0.449 OA
BRANCH  15  16
ATOM     16  C   LIG    1       -5.413  -0.215  -1.143  0.00  0.00    +0.230 C 
ATOM     17  C   LIG    1       -6.241   0.444  -0.072  0.00  0.00    +0.048 C 
ENDBRANCH  15  16
ENDBRANCH  13  15
ENDBRANCH   4  12
TORSDOF 4
