REMARK  Name = molecules/XLMALTXPSGQGBX-PGRDOPGGSA-N.pdb
REMARK                            x       y       z     vdW  Elec       q    Type
REMARK                         _______ _______ _______ _____ _____    ______ ____
ROOT
ATOM      1  C   LIG    1       -0.160  -0.272   0.138  0.00  0.00    +0.146 C 
ENDROOT
BRANCH   1   7
ATOM      2  C   LIG    1        1.393  -1.412   1.750  0.00  0.00    +0.007 A 
ATOM      3  C   LIG    1        1.695  -2.067   2.929  0.00  0.00    +0.000 A 
ATOM      4  C   LIG    1        0.692  -2.283   3.843  0.00  0.00    +0.000 A 
ATOM      5  C   LIG    1       -0.586  -1.830   3.535  0.00  0.00    +0.000 A 
ATOM      6  C   LIG    1       -0.857  -1.179   2.351  0.00  0.00    +0.007 A 
ATOM      7  C   LIG    1        0.123  -0.946   1.417  0.00  0.00    -0.004 A 
ENDBRANCH   1   7
BRANCH   1   8
ATOM      8  C   LIG    1       -1.670   0.184   0.230  0.00  0.00    +0.049 C 
ATOM      9  C   LIG    1       -1.800   1.248   1.281  0.00  0.00    +0.013 C 
BRANCH   8  10
ATOM     10  C   LIG    1       -2.098   0.836  -1.063  0.00  0.00    +0.091 C 
BRANCH  10  11
ATOM     11  N   LIG    1       -3.409   1.315  -1.077  0.00  0.00    -0.308 NA
ATOM     12  C   LIG    1       -4.433   0.848  -0.278  0.00  0.00    +0.104 C 
ATOM     13  C   LIG    1       -3.858   1.945  -2.268  0.00  0.00    +0.104 C 
ENDBRANCH  10  11
ENDBRANCH   8  10
ENDBRANCH   1   8
BRANCH   1  14
ATOM     14  O   LIG    1        0.431   0.959   0.138  0.00  0.00    -0.453 OA
BRANCH  14  15
ATOM     15  C   LIG    1        1.540   1.620   0.204  0.00  0.00    +0.308 C 
ATOM     16  O   LIG    1        2.588   1.006   0.313  0.00  0.00    -0.251 OA
BRANCH  15  17
ATOM     17  C   LIG    1        1.601   3.130   0.150  0.00  0.00    +0.117 C 
ATOM     18  C   LIG    1        3.065   3.509   0.157  0.00  0.00    +0.015 C 
ENDBRANCH  15  17
ENDBRANCH  14  15
ENDBRANCH   1  14
BRANCH   1  19
ATOM     19  C   LIG    1       -0.019  -1.088  -1.095  0.00  0.00    +0.088 C 
BRANCH  19  20
ATOM     20  C   LIG    1        1.260  -1.714  -1.404  0.00  0.00    -0.043 A 
ATOM     21  C   LIG    1        1.557  -2.984  -1.010  0.00  0.00    +0.004 A 
ATOM     22  C   LIG    1        2.771  -3.546  -1.324  0.00  0.00    +0.000 A 
ATOM     23  C   LIG    1        3.681  -2.805  -2.043  0.00  0.00    +0.000 A 
ATOM     24  C   LIG    1        3.425  -1.513  -2.466  0.00  0.00    +0.000 A 
ATOM     25  C   LIG    1        2.195  -1.014  -2.119  0.00  0.00    +0.004 A 
ENDBRANCH  19  20
ENDBRANCH   1  19
TORSDOF 9
