REMARK  Name = molecules/XLMPPFTZALNBFS-INIZCTEOSA-N.pdb
REMARK                            x       y       z     vdW  Elec       q    Type
REMARK                         _______ _______ _______ _____ _____    ______ ____
ROOT
ATOM      1  C   LIG    1       -0.763  -0.449  -0.793  0.00  0.00    +0.169 C 
ENDROOT
BRANCH   1   2
ATOM      2  C   LIG    1        0.532  -0.511  -0.102  0.00  0.00    -0.017 A 
ATOM      3  C   LIG    1        0.754  -1.401   0.917  0.00  0.00    +0.008 A 
ATOM      4  C   LIG    1        1.986  -1.423   1.536  0.00  0.00    +0.032 A 
ATOM      5  C   LIG    1        3.011  -0.568   1.157  0.00  0.00    +0.113 A 
ATOM      6  N   LIG    1        4.276  -0.352   1.550  0.00  0.00    -0.129 NA
ATOM      7  N   LIG    1        4.781   0.603   0.817  0.00  0.00    -0.065 NA
ATOM      8  N   LIG    1        3.898   1.051  -0.070  0.00  0.00    -0.247 N 
ATOM      9  C   LIG    1        4.051   2.085  -1.054  0.00  0.00    +0.175 C 
ATOM     10  C   LIG    1        2.787   0.331   0.129  0.00  0.00    +0.089 A 
ATOM     11  C   LIG    1        1.556   0.346  -0.483  0.00  0.00    +0.035 A 
ENDBRANCH   1   2
BRANCH   1  12
ATOM     12  C   LIG    1       -1.683   0.517  -0.122  0.00  0.00    -0.019 A 
ATOM     13  C   LIG    1       -2.505   0.049   0.881  0.00  0.00    +0.007 A 
ATOM     14  C   LIG    1       -3.348   0.953   1.491  0.00  0.00    +0.020 A 
ATOM     15  C   LIG    1       -3.372   2.279   1.116  0.00  0.00    +0.041 A 
ATOM     16 CL   LIG    1       -4.458   3.416   1.910  0.00  0.00    -0.084 Cl
ATOM     17  C   LIG    1       -2.540   2.746   0.103  0.00  0.00    +0.020 A 
ATOM     18  C   LIG    1       -1.714   1.840  -0.488  0.00  0.00    +0.007 A 
ENDBRANCH   1  12
BRANCH   1  19
ATOM     19  N   LIG    1       -1.387  -1.742  -0.905  0.00  0.00    -0.240 N 
ATOM     20  N   LIG    1       -2.670  -2.041  -0.953  0.00  0.00    -0.158 NA
ATOM     21  C   LIG    1       -2.807  -3.378  -1.059  0.00  0.00    +0.245 A 
ATOM     22  N   LIG    1       -1.559  -3.913  -1.075  0.00  0.00    -0.223 NA
ATOM     23  C   LIG    1       -0.686  -2.902  -0.980  0.00  0.00    +0.220 A 
ENDBRANCH   1  19
TORSDOF 3
