REMARK  Name = molecules/XLOMZPUITCYLMJ-MRVPVSSYSA-N.pdb
REMARK                            x       y       z     vdW  Elec       q    Type
REMARK                         _______ _______ _______ _____ _____    ______ ____
ROOT
ATOM      1  C   LIG    1       -0.887  -0.307   0.068  0.00  0.00    +0.129 C 
ATOM      2  C   LIG    1       -1.222  -1.126   1.225  0.00  0.00    +0.234 C 
ATOM      3  O   LIG    1       -0.408  -1.557   2.084  0.00  0.00    -0.274 OA
ATOM      4  N   LIG    1       -2.578  -1.497   1.443  0.00  0.00    -0.267 N 
ATOM      5  H   LIG    1       -2.937  -1.791   2.385  0.00  0.00    +0.157 HD
ATOM      6  C   LIG    1       -3.532  -1.492   0.399  0.00  0.00    +0.143 C 
ATOM      7  S   LIG    1       -5.099  -1.920   0.647  0.00  0.00    -0.018 S 
ATOM      8  N   LIG    1       -3.107  -1.104  -0.897  0.00  0.00    -0.267 N 
ATOM      9  H   LIG    1       -3.741  -1.070  -1.729  0.00  0.00    +0.157 HD
ATOM     10  C   LIG    1       -1.744  -0.742  -1.065  0.00  0.00    +0.234 C 
ATOM     11  O   LIG    1       -1.227  -0.785  -2.208  0.00  0.00    -0.274 OA
ENDROOT
BRANCH   1  12
ATOM     12  C   LIG    1        0.527  -0.357  -0.381  0.00  0.00    +0.010 C 
ATOM     13  C   LIG    1        0.834  -1.755  -0.874  0.00  0.00    +0.009 C 
BRANCH  12  14
ATOM     14  C   LIG    1        1.534   0.146   0.601  0.00  0.00    +0.004 C 
BRANCH  14  15
ATOM     15  C   LIG    1        2.891   0.151  -0.118  0.00  0.00    -0.003 C 
ATOM     16  C   LIG    1        3.910   0.664   0.888  0.00  0.00    +0.004 C 
ENDBRANCH  14  15
ENDBRANCH  12  14
ENDBRANCH   1  12
BRANCH   1  17
ATOM     17  C   LIG    1       -1.336   1.119   0.392  0.00  0.00    +0.052 C 
BRANCH  17  18
ATOM     18  C   LIG    1       -1.216   1.991  -0.798  0.00  0.00    -0.033 C 
ATOM     19  C   LIG    1       -0.441   3.060  -0.789  0.00  0.00    +0.004 C 
ENDBRANCH  17  18
ENDBRANCH   1  17
TORSDOF 5
