REMARK  Name = molecules/XLOQNFNTQIRSOX-ZDUSSCGKSA-N.pdb
REMARK                            x       y       z     vdW  Elec       q    Type
REMARK                         _______ _______ _______ _____ _____    ______ ____
ROOT
ATOM      1  N   LIG    1        0.269   0.971   0.340  0.00  0.00    -0.311 N 
ATOM      2  C   LIG    1       -0.335   2.257   0.278  0.00  0.00    +0.045 A 
ATOM      3  C   LIG    1       -1.606   2.492   0.776  0.00  0.00    +0.024 A 
ATOM      4  C   LIG    1       -2.232   3.709   0.744  0.00  0.00    +0.002 A 
ATOM      5  C   LIG    1       -1.586   4.786   0.192  0.00  0.00    +0.001 A 
ATOM      6  C   LIG    1       -0.321   4.621  -0.320  0.00  0.00    +0.017 A 
ATOM      7  C   LIG    1        0.268   3.381  -0.266  0.00  0.00    +0.034 A 
ATOM      8  S   LIG    1        1.910   3.256  -0.931  0.00  0.00    -0.089 S 
ATOM      9  C   LIG    1        2.421   1.567  -0.741  0.00  0.00    +0.020 C 
ATOM     10  C   LIG    1        3.668   1.257  -1.222  0.00  0.00    +0.014 C 
ATOM     11  C   LIG    1        4.127  -0.035  -1.120  0.00  0.00    +0.012 C 
ATOM     12  C   LIG    1        3.310  -0.990  -0.530  0.00  0.00    +0.016 C 
ATOM     13  C   LIG    1        2.071  -0.640  -0.062  0.00  0.00    +0.018 C 
ATOM     14  C   LIG    1        1.575   0.656  -0.148  0.00  0.00    +0.115 C 
ENDROOT
BRANCH  12  15
ATOM     15  C   LIG    1        3.751  -2.371  -0.399  0.00  0.00    +0.160 C 
ATOM     16  C   LIG    1        2.878  -3.385   0.229  0.00  0.00    +0.091 C 
ATOM     17  O   LIG    1        4.902  -2.648  -0.845  0.00  0.00    -0.292 OA
ENDBRANCH  12  15
BRANCH   1  18
ATOM     18  C   LIG    1       -0.474  -0.132   0.901  0.00  0.00    +0.125 C 
BRANCH  18  20
ATOM     19  C   LIG    1       -2.321  -0.160  -0.847  0.00  0.00    +0.026 C 
ATOM     20  C   LIG    1       -1.290  -0.907  -0.097  0.00  0.00    +0.070 C 
BRANCH  20  21
ATOM     21  N   LIG    1       -1.798  -2.090   0.578  0.00  0.00    -0.304 NA
ATOM     22  C   LIG    1       -2.830  -1.788   1.544  0.00  0.00    +0.104 C 
ATOM     23  C   LIG    1       -2.281  -2.995  -0.451  0.00  0.00    +0.104 C 
ENDBRANCH  20  21
ENDBRANCH  18  20
ENDBRANCH   1  18
TORSDOF 4
