REMARK  Name = molecules/XMFCOYRWYYXZMY-HXUWFJFHSA-N.pdb
REMARK                            x       y       z     vdW  Elec       q    Type
REMARK                         _______ _______ _______ _____ _____    ______ ____
ROOT
ATOM      1  C   LIG    1       -0.825  -0.859   0.190  0.00  0.00    +0.132 A 
ATOM      2  C   LIG    1       -2.193  -0.985   0.317  0.00  0.00    +0.062 A 
ATOM      3  C   LIG    1       -3.016   0.112   0.517  0.00  0.00    +0.030 A 
ATOM      4  C   LIG    1       -2.420   1.361   0.587  0.00  0.00    +0.017 A 
ATOM      5  C   LIG    1       -1.053   1.468   0.458  0.00  0.00    +0.016 A 
ATOM      6  C   LIG    1       -0.236   0.381   0.260  0.00  0.00    +0.059 A 
ENDROOT
BRANCH   6   7
ATOM      7  C   LIG    1        1.215   0.547   0.128  0.00  0.00    +0.144 A 
ATOM      8  N   LIG    1        1.873   1.712   0.183  0.00  0.00    -0.323 N 
ATOM      9  H   LIG    1        1.407   2.643   0.329  0.00  0.00    +0.169 HD
ATOM     10  C   LIG    1        3.201   1.519   0.027  0.00  0.00    +0.158 A 
ATOM     11  N   LIG    1        4.232   2.386   0.012  0.00  0.00    -0.236 NA
ATOM     12  C   LIG    1        5.479   1.955  -0.162  0.00  0.00    +0.113 A 
ATOM     13  C   LIG    1        5.686   0.602  -0.325  0.00  0.00    +0.022 A 
ATOM     14  C   LIG    1        4.651  -0.309  -0.315  0.00  0.00    +0.033 A 
ATOM     15  C   LIG    1        3.363   0.159  -0.133  0.00  0.00    +0.108 A 
ATOM     16  N   LIG    1        2.142  -0.390  -0.065  0.00  0.00    -0.226 NA
ENDBRANCH   6   7
BRANCH   3  17
ATOM     17  S   LIG    1       -4.755   0.008   0.685  0.00  0.00    -0.015 S 
ATOM     18  O   LIG    1       -5.203  -1.230   1.437  0.00  0.00    -0.157 OA
ATOM     19  C   LIG    1       -5.546   0.146  -0.922  0.00  0.00    +0.112 C 
ENDBRANCH   3  17
BRANCH   1  20
ATOM     20  O   LIG    1       -0.035  -1.981  -0.009  0.00  0.00    -0.494 OA
ATOM     21  C   LIG    1       -0.519  -3.284  -0.096  0.00  0.00    +0.277 C 
ENDBRANCH   1  20
TORSDOF 3
