REMARK  Name = molecules/XMQICEWOKPEQRG-UHFFFAOYSA-N.pdb
REMARK                            x       y       z     vdW  Elec       q    Type
REMARK                         _______ _______ _______ _____ _____    ______ ____
ROOT
ATOM      1  C   LIG    1       -0.366   0.251   0.116  0.00  0.00    +0.127 C 
ATOM      2  C   LIG    1       -0.863  -0.341   1.375  0.00  0.00    +0.234 C 
ATOM      3  O   LIG    1       -0.188  -0.202   2.418  0.00  0.00    -0.274 OA
ATOM      4  N   LIG    1       -2.075  -1.059   1.438  0.00  0.00    -0.267 N 
ATOM      5  H   LIG    1       -2.568  -1.232   2.365  0.00  0.00    +0.157 HD
ATOM      6  C   LIG    1       -2.631  -1.549   0.228  0.00  0.00    +0.143 C 
ATOM      7  S   LIG    1       -4.054  -2.392   0.299  0.00  0.00    -0.018 S 
ATOM      8  N   LIG    1       -1.974  -1.316  -0.994  0.00  0.00    -0.267 N 
ATOM      9  H   LIG    1       -2.409  -1.692  -1.875  0.00  0.00    +0.157 HD
ATOM     10  C   LIG    1       -0.759  -0.594  -1.032  0.00  0.00    +0.234 C 
ATOM     11  O   LIG    1       -0.003  -0.669  -2.053  0.00  0.00    -0.274 OA
ENDROOT
BRANCH   1  12
ATOM     12  C   LIG    1       -1.190   1.547  -0.050  0.00  0.00    +0.022 C 
ATOM     13  C   LIG    1       -0.847   2.263  -1.310  0.00  0.00    +0.005 C 
ENDBRANCH   1  12
BRANCH   1  14
ATOM     14  C   LIG    1        1.083   0.620   0.146  0.00  0.00    +0.055 C 
BRANCH  14  15
ATOM     15  C   LIG    1        2.036  -0.483   0.300  0.00  0.00    -0.078 C 
ATOM     16  C   LIG    1        1.657  -1.726   0.409  0.00  0.00    +0.007 C 
ATOM     17  C   LIG    1        3.486  -0.154   0.331  0.00  0.00    +0.038 C 
ENDBRANCH  14  15
ENDBRANCH   1  14
TORSDOF 3
