REMARK  Name = molecules/XMXHEBAFVSFQEX-UHFFFAOYSA-N.pdb
REMARK                            x       y       z     vdW  Elec       q    Type
REMARK                         _______ _______ _______ _____ _____    ______ ____
ROOT
ATOM      1  C   LIG    1       -3.215  -0.233   0.082  0.00  0.00    +0.044 C 
ATOM      2  C   LIG    1       -2.009  -0.659   0.901  0.00  0.00    +0.025 C 
ATOM      3  C   LIG    1       -0.931   0.423   0.634  0.00  0.00    +0.085 C 
ATOM      4  N   LIG    1       -1.079   0.958  -0.656  0.00  0.00    -0.302 NA
ATOM      5  C   LIG    1       -2.220   1.778  -0.867  0.00  0.00    +0.085 C 
ATOM      6  C   LIG    1       -3.289   1.280   0.127  0.00  0.00    +0.025 C 
ENDROOT
BRANCH   1  13
ATOM      7  F   LIG    1       -9.727  -1.040  -0.899  0.00  0.00    -0.205 F 
ATOM      8  C   LIG    1       -8.411  -0.963  -0.577  0.00  0.00    +0.127 A 
ATOM      9  C   LIG    1       -7.908  -1.602   0.535  0.00  0.00    +0.088 A 
ATOM     10  C   LIG    1       -6.566  -1.502   0.832  0.00  0.00    +0.170 A 
ATOM     11  O   LIG    1       -5.823  -1.994   1.804  0.00  0.00    -0.354 OA
ATOM     12  N   LIG    1       -4.572  -1.621   1.667  0.00  0.00    -0.082 NA
ATOM     13  C   LIG    1       -4.448  -0.857   0.580  0.00  0.00    +0.094 A 
ATOM     14  C   LIG    1       -5.699  -0.760   0.023  0.00  0.00    +0.045 A 
ATOM     15  C   LIG    1       -6.248  -0.140  -1.076  0.00  0.00    +0.016 A 
ATOM     16  C   LIG    1       -7.585  -0.225  -1.394  0.00  0.00    +0.039 A 
ENDBRANCH   1  13
BRANCH   4  17
ATOM     17  C   LIG    1        0.108   1.248  -1.342  0.00  0.00    +0.087 C 
BRANCH  17  18
ATOM     18  C   LIG    1        0.962   2.380  -0.903  0.00  0.00    +0.056 C 
BRANCH  18  19
ATOM     19  C   LIG    1        1.542   2.336   0.457  0.00  0.00    +0.230 C 
BRANCH  19  20
ATOM     20  O   LIG    1        2.362   1.307   0.806  0.00  0.00    -0.488 OA
BRANCH  20  21
ATOM     21  C   LIG    1        3.560   0.954   0.325  0.00  0.00    +0.162 A 
ATOM     22  C   LIG    1        4.160  -0.190   0.854  0.00  0.00    +0.162 A 
ATOM     23  C   LIG    1        5.384  -0.606   0.401  0.00  0.00    +0.060 A 
ATOM     24  C   LIG    1        6.036   0.123  -0.601  0.00  0.00    +0.021 A 
ATOM     25  C   LIG    1        5.473   1.250  -1.140  0.00  0.00    +0.015 A 
ATOM     26  C   LIG    1        4.223   1.642  -0.649  0.00  0.00    +0.050 A 
BRANCH  24  27
ATOM     27  C   LIG    1        7.339  -0.317  -1.086  0.00  0.00    +0.160 C 
ATOM     28  C   LIG    1        7.950  -1.543  -0.500  0.00  0.00    +0.091 C 
ATOM     29  O   LIG    1        7.924   0.334  -1.981  0.00  0.00    -0.292 OA
ENDBRANCH  24  27
BRANCH  22  30
ATOM     30  O   LIG    1        3.498  -0.877   1.827  0.00  0.00    -0.491 OA
ATOM     31  C   LIG    1        3.932  -2.034   2.472  0.00  0.00    +0.277 C 
ENDBRANCH  22  30
ENDBRANCH  20  21
ENDBRANCH  19  20
ENDBRANCH  18  19
ENDBRANCH  17  18
ENDBRANCH   4  17
TORSDOF 8
