REMARK  Name = molecules/XNKLLVCARDGLGL-JGVFFNPUSA-N.pdb
REMARK                            x       y       z     vdW  Elec       q    Type
REMARK                         _______ _______ _______ _____ _____    ______ ____
ROOT
ATOM      1  O   LIG    1       -0.109  -2.141   0.031  0.00  0.00    -0.246 OA
ATOM      2  C   LIG    1       -1.058  -1.316  -0.006  0.00  0.00    +0.332 A 
ATOM      3  N   LIG    1       -2.352  -1.698   0.021  0.00  0.00    -0.275 N 
ATOM      4  H   LIG    1       -2.595  -2.726   0.074  0.00  0.00    +0.173 HD
ATOM      5  C   LIG    1       -3.350  -0.809  -0.019  0.00  0.00    +0.257 A 
ATOM      6  O   LIG    1       -4.567  -1.142   0.004  0.00  0.00    -0.267 OA
ATOM      7  C   LIG    1       -3.054   0.541  -0.090  0.00  0.00    +0.030 A 
ATOM      8  C   LIG    1       -1.714   0.898  -0.115  0.00  0.00    +0.102 A 
ATOM      9  C   LIG    1       -4.126   1.579  -0.137  0.00  0.00    +0.051 C 
ATOM     10  N   LIG    1       -0.720  -0.007  -0.074  0.00  0.00    -0.270 N 
ENDROOT
BRANCH  10  11
ATOM     11  C   LIG    1        0.640   0.444  -0.105  0.00  0.00    +0.248 C 
ATOM     12  C   LIG    1        1.268   0.491   1.240  0.00  0.00    +0.025 C 
ATOM     13  C   LIG    1        2.560   0.247   1.063  0.00  0.00    +0.007 C 
ATOM     14  C   LIG    1        2.735   0.047  -0.403  0.00  0.00    +0.169 C 
ATOM     15  O   LIG    1        1.490  -0.462  -0.775  0.00  0.00    -0.343 OA
BRANCH  14  16
ATOM     16  C   LIG    1        3.852  -0.926  -0.703  0.00  0.00    +0.191 C 
BRANCH  16  17
ATOM     17  O   LIG    1        5.038  -0.327  -0.297  0.00  0.00    -0.392 OA
ATOM     18  H   LIG    1        5.359  -0.670   0.574  0.00  0.00    +0.210 HD
ENDBRANCH  16  17
ENDBRANCH  14  16
ENDBRANCH  10  11
TORSDOF 3
