REMARK  Name = molecules/XNOPRXBHLZRZKH-DSZYJQQASA-N.pdb
REMARK                            x       y       z     vdW  Elec       q    Type
REMARK                         _______ _______ _______ _____ _____    ______ ____
ROOT
ATOM      1  C   LIG    1       -0.977  -3.570   0.080  0.00  0.00    +0.148 C 
ATOM      2  C   LIG    1       -1.872  -3.176   1.161  0.00  0.00    +0.231 C 
ATOM      3  O   LIG    1       -1.435  -3.441   2.352  0.00  0.00    -0.274 OA
ATOM      4  N   LIG    1       -3.123  -2.557   1.111  0.00  0.00    -0.302 N 
ATOM      5  H   LIG    1       -3.293  -1.688   1.698  0.00  0.00    +0.150 HD
ATOM      6  C   LIG    1       -4.263  -3.009   0.305  0.00  0.00    +0.163 C 
ATOM      7  C   LIG    1       -4.795  -1.907  -0.523  0.00  0.00    +0.234 C 
ATOM      8  N   LIG    1       -5.875  -1.052  -0.362  0.00  0.00    -0.302 N 
ATOM      9  C   LIG    1       -6.139   0.085   0.472  0.00  0.00    +0.162 C 
ATOM     10  C   LIG    1       -5.190   0.404   1.512  0.00  0.00    +0.234 C 
ATOM     11  O   LIG    1       -5.285  -0.213   2.630  0.00  0.00    -0.274 OA
ATOM     12  N   LIG    1       -4.156   1.351   1.397  0.00  0.00    -0.302 N 
ATOM     13  H   LIG    1       -3.853   1.902   2.275  0.00  0.00    +0.150 HD
ATOM     14  C   LIG    1       -3.397   1.689   0.226  0.00  0.00    +0.159 C 
ATOM     15  C   LIG    1       -1.955   1.565   0.620  0.00  0.00    +0.234 C 
ATOM     16  O   LIG    1       -1.664   0.347   0.944  0.00  0.00    -0.274 OA
ATOM     17  N   LIG    1       -0.951   2.489   0.692  0.00  0.00    -0.302 N 
ATOM     18  H   LIG    1       -0.636   2.735   1.714  0.00  0.00    +0.150 HD
ATOM     19  C   LIG    1       -0.189   3.224  -0.283  0.00  0.00    +0.168 C 
ATOM     20  C   LIG    1       -0.105   2.644  -1.622  0.00  0.00    +0.234 C 
ATOM     21  N   LIG    1        0.552   1.504  -2.077  0.00  0.00    -0.302 N 
ATOM     22  C   LIG    1        1.961   1.153  -1.998  0.00  0.00    +0.170 C 
ATOM     23  C   LIG    1        2.153   0.138  -3.151  0.00  0.00    +0.112 C 
ATOM     24  S   LIG    1        1.799  -1.541  -2.678  0.00  0.00    -0.091 S 
ATOM     25  S   LIG    1       -0.052  -1.607  -1.638  0.00  0.00    -0.091 S 
ATOM     26  H   LIG    1       -0.074   0.774  -2.551  0.00  0.00    +0.150 HD
ATOM     27  O   LIG    1       -0.754   3.309  -2.536  0.00  0.00    -0.274 OA
ATOM     28  H   LIG    1       -6.703  -1.263  -1.034  0.00  0.00    +0.150 HD
ATOM     29  O   LIG    1       -4.071  -1.744  -1.618  0.00  0.00    -0.274 OA
ATOM     30  C   LIG    1        0.086  -2.476  -0.052  0.00  0.00    +0.109 C 
ENDROOT
BRANCH  22  31
ATOM     31  C   LIG    1        2.838   2.310  -2.351  0.00  0.00    +0.237 C 
ATOM     32  N   LIG    1        4.194   2.487  -2.157  0.00  0.00    -0.288 N 
ATOM     33  C   LIG    1        5.335   1.861  -1.630  0.00  0.00    +0.162 C 
ATOM     34  C   LIG    1        5.679   2.885  -0.503  0.00  0.00    +0.033 C 
ATOM     35  C   LIG    1        5.407   4.210  -1.233  0.00  0.00    +0.021 C 
ATOM     36  C   LIG    1        4.833   3.806  -2.596  0.00  0.00    +0.109 C 
ATOM     37  O   LIG    1        2.211   3.306  -2.926  0.00  0.00    -0.274 OA
BRANCH  33  38
ATOM     38  C   LIG    1        5.432   0.511  -1.194  0.00  0.00    +0.234 C 
ATOM     39  N   LIG    1        6.683   0.155  -0.484  0.00  0.00    -0.302 N 
ATOM     40  H   LIG    1        7.395   0.869  -0.291  0.00  0.00    +0.150 HD
ATOM     41  O   LIG    1        4.614  -0.398  -1.332  0.00  0.00    -0.274 OA
BRANCH  39  42
ATOM     42  C   LIG    1        6.871  -1.201  -0.037  0.00  0.00    +0.159 C 
BRANCH  42  43
ATOM     43  C   LIG    1        7.073  -1.288   1.443  0.00  0.00    +0.234 C 
ATOM     44  O   LIG    1        7.112  -0.266   2.170  0.00  0.00    -0.274 OA
ATOM     45  N   LIG    1        7.221  -2.555   2.035  0.00  0.00    -0.305 N 
ATOM     46  H   LIG    1        7.187  -3.412   1.439  0.00  0.00    +0.149 HD
BRANCH  45  47
ATOM     47  C   LIG    1        7.416  -2.784   3.445  0.00  0.00    +0.199 C 
BRANCH  47  48
ATOM     48  C   LIG    1        8.613  -2.172   4.014  0.00  0.00    +0.228 C 
ATOM     49  O   LIG    1        8.841  -2.343   5.259  0.00  0.00    -0.274 OA
ATOM     50  N   LIG    1        9.573  -1.395   3.323  0.00  0.00    -0.328 N 
ATOM     51  H   LIG    1        9.542  -0.363   3.425  0.00  0.00    +0.145 HD
ATOM     52  H   LIG    1       10.276  -1.870   2.738  0.00  0.00    +0.145 HD
ENDBRANCH  47  48
ENDBRANCH  45  47
ENDBRANCH  42  43
BRANCH  42  53
ATOM     53  C   LIG    1        7.979  -1.946  -0.713  0.00  0.00    +0.034 C 
BRANCH  53  54
ATOM     54  C   LIG    1        9.358  -1.389  -0.572  0.00  0.00    -0.015 C 
ATOM     55  C   LIG    1        9.590  -0.030  -1.144  0.00  0.00    +0.007 C 
ATOM     56  C   LIG    1       10.354  -2.314  -1.308  0.00  0.00    +0.007 C 
ENDBRANCH  53  54
ENDBRANCH  42  53
ENDBRANCH  39  42
ENDBRANCH  33  38
ENDBRANCH  22  31
BRANCH   1  57
ATOM     57  N   LIG    1       -1.680  -3.775  -1.144  0.00  0.00    -0.319 NA
ATOM     58  H   LIG    1       -1.706  -4.776  -1.427  0.00  0.00    +0.119 HD
ATOM     59  H   LIG    1       -1.476  -3.124  -1.908  0.00  0.00    +0.119 HD
ENDBRANCH   1  57
BRANCH   9  60
ATOM     60  C   LIG    1       -7.538   0.076   1.090  0.00  0.00    +0.015 C 
ATOM     61  C   LIG    1       -7.686   1.352   1.889  0.00  0.00    +0.010 C 
BRANCH  60  62
ATOM     62  C   LIG    1       -8.569   0.084   0.020  0.00  0.00    +0.002 C 
ATOM     63  C   LIG    1       -8.493   1.220  -0.955  0.00  0.00    +0.004 C 
ENDBRANCH  60  62
ENDBRANCH   9  60
BRANCH  19  64
ATOM     64  C   LIG    1        1.250   3.438   0.221  0.00  0.00    +0.127 C 
BRANCH  64  65
ATOM     65  C   LIG    1        1.196   4.204   1.523  0.00  0.00    +0.213 C 
ATOM     66  O   LIG    1        1.246   3.618   2.634  0.00  0.00    -0.276 OA
ATOM     67  N   LIG    1        1.087   5.624   1.527  0.00  0.00    -0.329 N 
ATOM     68  H   LIG    1        0.181   6.072   1.849  0.00  0.00    +0.145 HD
ATOM     69  H   LIG    1        1.834   6.274   1.236  0.00  0.00    +0.145 HD
ENDBRANCH  64  65
ENDBRANCH  19  64
BRANCH  14  70
ATOM     70  C   LIG    1       -3.740   2.907  -0.510  0.00  0.00    +0.041 C 
BRANCH  70  71
ATOM     71  C   LIG    1       -3.679   4.222   0.175  0.00  0.00    +0.098 C 
BRANCH  71  72
ATOM     72  C   LIG    1       -4.607   4.441   1.282  0.00  0.00    +0.211 C 
ATOM     73  N   LIG    1       -4.428   5.498   2.240  0.00  0.00    -0.329 N 
ATOM     74  H   LIG    1       -4.093   5.207   3.182  0.00  0.00    +0.145 HD
ATOM     75  H   LIG    1       -4.619   6.503   2.025  0.00  0.00    +0.145 HD
ATOM     76  O   LIG    1       -5.600   3.706   1.427  0.00  0.00    -0.276 OA
ENDBRANCH  71  72
ENDBRANCH  70  71
ENDBRANCH  14  70
BRANCH   6  77
ATOM     77  C   LIG    1       -5.249  -3.734   1.159  0.00  0.00    +0.067 C 
BRANCH  77  78
ATOM     78  C   LIG    1       -6.392  -4.279   0.421  0.00  0.00    -0.045 A 
ATOM     79  C   LIG    1       -7.611  -3.716   0.226  0.00  0.00    +0.007 A 
ATOM     80  C   LIG    1       -8.637  -4.355  -0.481  0.00  0.00    +0.045 A 
ATOM     81  C   LIG    1       -8.432  -5.592  -1.005  0.00  0.00    +0.117 A 
ATOM     82  C   LIG    1       -7.209  -6.200  -0.829  0.00  0.00    +0.045 A 
ATOM     83  C   LIG    1       -6.210  -5.558  -0.131  0.00  0.00    +0.007 A 
BRANCH  81  84
ATOM     84  O   LIG    1       -9.473  -6.194  -1.699  0.00  0.00    -0.507 OA
ATOM     85  H   LIG    1       -9.388  -7.131  -2.122  0.00  0.00    +0.292 HD
ENDBRANCH  81  84
ENDBRANCH  77  78
ENDBRANCH   6  77
TORSDOF 19
