REMARK  Name = molecules/XNSAINXGIQZQOO-SRVKXCTJSA-N.pdb
REMARK                            x       y       z     vdW  Elec       q    Type
REMARK                         _______ _______ _______ _____ _____    ______ ____
ROOT
ATOM      1  C   LIG    1        0.097   0.936   0.221  0.00  0.00    +0.165 C 
ENDROOT
BRANCH   1   2
ATOM      2  C   LIG    1       -1.149   0.450  -0.398  0.00  0.00    +0.237 C 
ATOM      3  N   LIG    1       -1.752  -0.742   0.092  0.00  0.00    -0.288 N 
ATOM      4  C   LIG    1       -0.988  -1.708   0.940  0.00  0.00    +0.109 C 
ATOM      5  C   LIG    1       -1.946  -2.721   1.444  0.00  0.00    +0.021 C 
ATOM      6  C   LIG    1       -3.310  -2.079   1.184  0.00  0.00    +0.033 C 
ATOM      7  C   LIG    1       -2.976  -1.417  -0.172  0.00  0.00    +0.162 C 
ATOM      8  O   LIG    1       -1.649   1.080  -1.350  0.00  0.00    -0.274 OA
BRANCH   7   9
ATOM      9  C   LIG    1       -4.143  -0.632  -0.568  0.00  0.00    +0.231 C 
ATOM     10  N   LIG    1       -5.370  -1.318  -0.686  0.00  0.00    -0.328 N 
ATOM     11  H   LIG    1       -5.849  -1.713   0.140  0.00  0.00    +0.145 HD
ATOM     12  H   LIG    1       -5.815  -1.430  -1.621  0.00  0.00    +0.145 HD
ATOM     13  O   LIG    1       -4.109   0.581  -0.792  0.00  0.00    -0.274 OA
ENDBRANCH   7   9
ENDBRANCH   1   2
BRANCH   1  14
ATOM     14  N   LIG    1        1.146   0.107  -0.342  0.00  0.00    -0.302 N 
ATOM     15  C   LIG    1        2.534   0.200  -0.093  0.00  0.00    +0.234 C 
ATOM     16  O   LIG    1        3.042   1.069   0.574  0.00  0.00    -0.274 OA
ATOM     17  H   LIG    1        0.851  -0.659  -1.033  0.00  0.00    +0.150 HD
BRANCH  15  18
ATOM     18  C   LIG    1        3.356  -0.876  -0.721  0.00  0.00    +0.159 C 
ATOM     19  C   LIG    1        4.221  -1.390   0.556  0.00  0.00    +0.041 C 
ATOM     20  C   LIG    1        5.025  -2.460  -0.131  0.00  0.00    +0.098 C 
ATOM     21  C   LIG    1        5.225  -1.866  -1.478  0.00  0.00    +0.214 C 
ATOM     22  O   LIG    1        5.851  -2.270  -2.486  0.00  0.00    -0.276 OA
ATOM     23  N   LIG    1        4.500  -0.576  -1.501  0.00  0.00    -0.304 N 
ATOM     24  H   LIG    1        4.785   0.302  -1.948  0.00  0.00    +0.149 HD
ENDBRANCH  15  18
ENDBRANCH   1  14
BRANCH   1  25
ATOM     25  C   LIG    1        0.467   2.351  -0.256  0.00  0.00    +0.088 C 
BRANCH  25  26
ATOM     26  C   LIG    1       -0.554   3.359   0.038  0.00  0.00    +0.061 A 
ATOM     27  N   LIG    1       -1.763   3.290   0.575  0.00  0.00    -0.241 NA
ATOM     28  C   LIG    1       -2.364   4.501   0.650  0.00  0.00    +0.196 A 
ATOM     29  N   LIG    1       -1.451   5.396   0.123  0.00  0.00    -0.351 N 
ATOM     30  H   LIG    1       -1.684   6.424   0.061  0.00  0.00    +0.166 HD
ATOM     31  C   LIG    1       -0.375   4.711  -0.237  0.00  0.00    +0.107 A 
ENDBRANCH  25  26
ENDBRANCH   1  25
TORSDOF 6
