REMARK  Name = molecules/XOAAWQZATWQOTB-UHFFFAOYSA-N.pdb
REMARK                            x       y       z     vdW  Elec       q    Type
REMARK                         _______ _______ _______ _____ _____    ______ ____
ROOT
ATOM      1  C   LIG    1        0.079  -0.628   0.661  0.00  0.00    +0.212 C 
ENDROOT
BRANCH   1   2
ATOM      2  S   LIG    1        1.506  -0.093  -0.211  0.00  0.00    +0.081 S 
ATOM      3  O   LIG    1        2.702  -0.773   0.389  0.00  0.00    -0.147 OA
ATOM      4  O   LIG    1        1.451  -0.324  -1.672  0.00  0.00    -0.147 OA
BRANCH   2   5
ATOM      5  O   LIG    1        1.716   1.566   0.050  0.00  0.00    -0.254 OA
ATOM      6  H   LIG    1        2.438   1.753   0.692  0.00  0.00    +0.244 HD
ENDBRANCH   2   5
ENDBRANCH   1   2
BRANCH   1   7
ATOM      7  C   LIG    1       -1.190   0.053   0.248  0.00  0.00    +0.103 C 
BRANCH   7   8
ATOM      8  N   LIG    1       -1.545  -0.116  -1.120  0.00  0.00    -0.328 NA
ATOM      9  H   LIG    1       -2.328  -0.822  -1.240  0.00  0.00    +0.118 HD
ATOM     10  H   LIG    1       -1.961   0.785  -1.505  0.00  0.00    +0.118 HD
ENDBRANCH   7   8
ENDBRANCH   1   7
TORSDOF 4
