REMARK  Name = molecules/XOEUHCONYHZURQ-HNUBZJOYSA-N.pdb
REMARK                            x       y       z     vdW  Elec       q    Type
REMARK                         _______ _______ _______ _____ _____    ______ ____
ROOT
ATOM      1  C   LIG    1       -0.545   0.686  -1.453  0.00  0.00    +0.140 C 
ATOM      2  C   LIG    1       -1.859   0.055  -1.058  0.00  0.00    +0.124 C 
ATOM      3  C   LIG    1       -2.471   0.733   0.180  0.00  0.00    +0.022 C 
ATOM      4  C   LIG    1       -2.884   0.124  -2.159  0.00  0.00    +0.313 C 
ATOM      5  O   LIG    1       -3.934  -0.757  -2.103  0.00  0.00    -0.458 OA
ATOM      6  C   LIG    1       -3.870  -2.165  -2.205  0.00  0.00    +0.210 C 
ATOM      7  C   LIG    1       -4.534  -2.826  -1.008  0.00  0.00    +0.126 C 
ATOM      8  C   LIG    1       -3.510  -3.439  -0.091  0.00  0.00    +0.159 C 
ATOM      9  C   LIG    1       -3.513  -2.953   1.308  0.00  0.00    +0.087 C 
ATOM     10  C   LIG    1       -4.382  -3.816   2.237  0.00  0.00    +0.018 C 
ATOM     11  C   LIG    1       -2.224  -2.667   1.925  0.00  0.00    +0.175 C 
ATOM     12  O   LIG    1       -2.208  -1.872   2.881  0.00  0.00    -0.294 OA
ATOM     13  C   LIG    1       -0.889  -3.199   1.571  0.00  0.00    +0.169 C 
ATOM     14  C   LIG    1       -0.405  -3.923   2.848  0.00  0.00    +0.056 C 
ATOM     15  C   LIG    1        0.007  -2.027   1.248  0.00  0.00    +0.085 C 
ATOM     16  C   LIG    1        0.746  -2.179  -0.040  0.00  0.00    +0.093 C 
ATOM     17  C   LIG    1        1.959  -3.066   0.353  0.00  0.00    +0.044 C 
ATOM     18  C   LIG    1        1.296  -0.902  -0.624  0.00  0.00    +0.158 C 
ATOM     19  F   LIG    1       -0.875  -4.165   0.615  0.00  0.00    -0.234 F 
ATOM     20  C   LIG    1       -5.399  -1.772  -0.357  0.00  0.00    +0.048 C 
ATOM     21  O   LIG    1       -2.691   0.988  -3.042  0.00  0.00    -0.250 OA
ATOM     22  C   LIG    1        0.576  -0.255  -1.722  0.00  0.00    +0.047 C 
ATOM     23  C   LIG    1        0.269  -1.178  -2.894  0.00  0.00    +0.013 C 
ENDROOT
BRANCH  16  24
ATOM     24  O   LIG    1        0.140  -2.910  -1.020  0.00  0.00    -0.386 OA
ATOM     25  H   LIG    1        0.707  -3.555  -1.484  0.00  0.00    +0.210 HD
ENDBRANCH  16  24
BRANCH   8  26
ATOM     26  O   LIG    1       -3.642  -4.826  -0.092  0.00  0.00    -0.388 OA
ATOM     27  H   LIG    1       -4.290  -5.191   0.523  0.00  0.00    +0.210 HD
ENDBRANCH   8  26
BRANCH   7  28
ATOM     28  O   LIG    1       -5.427  -3.776  -1.519  0.00  0.00    -0.383 OA
ATOM     29  H   LIG    1       -5.317  -4.673  -1.149  0.00  0.00    +0.210 HD
ENDBRANCH   7  28
BRANCH   6  30
ATOM     30  C   LIG    1       -4.540  -2.546  -3.508  0.00  0.00    +0.044 C 
ATOM     31  C   LIG    1       -4.535  -4.032  -3.759  0.00  0.00    +0.007 C 
ENDBRANCH   6  30
BRANCH   1  32
ATOM     32  O   LIG    1       -0.314   1.752  -0.630  0.00  0.00    -0.347 OA
BRANCH  32  33
ATOM     33  C   LIG    1       -0.426   2.990  -1.173  0.00  0.00    +0.254 C 
ATOM     34  C   LIG    1       -1.455   3.930  -0.646  0.00  0.00    +0.098 C 
ATOM     35  C   LIG    1       -1.061   4.718   0.566  0.00  0.00    +0.099 C 
ATOM     36  C   LIG    1        0.391   5.085   0.592  0.00  0.00    +0.175 C 
ATOM     37  C   LIG    1        1.299   4.078  -0.021  0.00  0.00    +0.149 C 
ATOM     38  C   LIG    1        2.658   4.732  -0.176  0.00  0.00    +0.041 C 
ATOM     39  C   LIG    1       -1.821   6.061   0.469  0.00  0.00    +0.044 C 
ATOM     40  O   LIG    1        0.799   3.607  -1.194  0.00  0.00    -0.346 OA
BRANCH  35  41
ATOM     41  O   LIG    1       -1.469   4.118   1.720  0.00  0.00    -0.374 OA
ATOM     42  C   LIG    1       -2.803   3.953   1.926  0.00  0.00    +0.194 C 
ENDBRANCH  35  41
BRANCH  36  43
ATOM     43  O   LIG    1        0.749   5.181   1.958  0.00  0.00    -0.386 OA
ATOM     44  H   LIG    1        0.453   4.342   2.438  0.00  0.00    +0.210 HD
ENDBRANCH  36  43
ENDBRANCH  32  33
ENDBRANCH   1  32
BRANCH  18  45
ATOM     45  O   LIG    1        1.697  -0.008   0.359  0.00  0.00    -0.342 OA
BRANCH  45  46
ATOM     46  C   LIG    1        3.062   0.000   0.604  0.00  0.00    +0.281 C 
ATOM     47  O   LIG    1        3.290  -0.251   1.971  0.00  0.00    -0.346 OA
ATOM     48  C   LIG    1        4.615  -0.506   2.206  0.00  0.00    +0.120 C 
ATOM     49  C   LIG    1        4.787  -0.775   3.696  0.00  0.00    +0.038 C 
ATOM     50  C   LIG    1        5.505   0.666   1.871  0.00  0.00    +0.053 C 
ATOM     51  C   LIG    1        5.247   1.018   0.420  0.00  0.00    +0.092 C 
ATOM     52  C   LIG    1        3.769   1.289   0.271  0.00  0.00    +0.187 C 
BRANCH  51  53
ATOM     53  N   LIG    1        6.120   2.021  -0.069  0.00  0.00    -0.303 NA
ATOM     54  C   LIG    1        7.482   1.597   0.194  0.00  0.00    +0.105 C 
ATOM     55  C   LIG    1        6.000   2.196  -1.494  0.00  0.00    +0.105 C 
ENDBRANCH  51  53
BRANCH  52  56
ATOM     56  O   LIG    1        3.452   1.735  -1.008  0.00  0.00    -0.385 OA
ATOM     57  H   LIG    1        3.585   1.068  -1.698  0.00  0.00    +0.210 HD
ENDBRANCH  52  56
ENDBRANCH  45  46
ENDBRANCH  18  45
TORSDOF 12
