REMARK  Name = molecules/XOFYZVNMUHMLCC-ZPOLXVRWSA-N.pdb
REMARK                            x       y       z     vdW  Elec       q    Type
REMARK                         _______ _______ _______ _____ _____    ______ ____
ROOT
ATOM      1  C   LIG    1        3.042   2.007   0.843  0.00  0.00    -0.012 C 
ATOM      2  C   LIG    1        4.062   2.022   1.692  0.00  0.00    +0.047 C 
ATOM      3  C   LIG    1        4.801   0.800   1.928  0.00  0.00    +0.179 C 
ATOM      4  O   LIG    1        5.779   0.748   2.718  0.00  0.00    -0.288 OA
ATOM      5  C   LIG    1        4.420  -0.408   1.244  0.00  0.00    +0.051 C 
ATOM      6  C   LIG    1        3.408  -0.371   0.417  0.00  0.00    -0.056 C 
ATOM      7  C   LIG    1        2.994  -1.662  -0.245  0.00  0.00    +0.032 C 
ATOM      8  C   LIG    1        1.588  -1.907   0.335  0.00  0.00    +0.009 C 
ATOM      9  C   LIG    1        0.709  -0.818  -0.155  0.00  0.00    +0.004 C 
ATOM     10  C   LIG    1        1.146   0.582   0.325  0.00  0.00    +0.072 C 
ATOM     11  C   LIG    1        0.257   1.539  -0.363  0.00  0.00    +0.138 C 
ATOM     12  O   LIG    1        0.678   2.657  -0.599  0.00  0.00    -0.297 OA
ATOM     13  C   LIG    1       -1.135   1.277  -0.811  0.00  0.00    +0.084 C 
ATOM     14  C   LIG    1       -1.610  -0.105  -0.640  0.00  0.00    +0.013 C 
ATOM     15  C   LIG    1       -2.894  -0.298   0.110  0.00  0.00    +0.132 C 
ATOM     16  C   LIG    1       -2.845  -1.814   0.378  0.00  0.00    +0.043 C 
ATOM     17  C   LIG    1       -1.380  -2.215   0.272  0.00  0.00    +0.008 C 
ATOM     18  C   LIG    1       -1.761  -0.816  -1.969  0.00  0.00    +0.015 C 
ATOM     19  C   LIG    1       -0.704  -0.905   0.299  0.00  0.00    +0.002 C 
ATOM     20  C   LIG    1        2.594   0.816   0.100  0.00  0.00    +0.017 C 
ATOM     21  C   LIG    1        2.834   1.119  -1.388  0.00  0.00    +0.021 C 
ENDROOT
BRANCH  15  22
ATOM     22  O   LIG    1       -2.806   0.392   1.317  0.00  0.00    -0.380 OA
ATOM     23  H   LIG    1       -2.114   1.067   1.301  0.00  0.00    +0.211 HD
ENDBRANCH  15  22
BRANCH  15  24
ATOM     24  C   LIG    1       -4.091   0.088  -0.622  0.00  0.00    +0.190 C 
ATOM     25  O   LIG    1       -4.352  -0.400  -1.700  0.00  0.00    -0.292 OA
BRANCH  24  26
ATOM     26  C   LIG    1       -5.018   1.097  -0.052  0.00  0.00    +0.233 C 
BRANCH  26  27
ATOM     27  O   LIG    1       -4.607   1.579   1.185  0.00  0.00    -0.387 OA
ATOM     28  H   LIG    1       -5.311   1.526   1.875  0.00  0.00    +0.210 HD
ENDBRANCH  26  27
ENDBRANCH  24  26
ENDBRANCH  15  24
TORSDOF 4
