REMARK  Name = molecules/XOZLRRYPUKAKMU-UHFFFAOYSA-N.pdb
REMARK                            x       y       z     vdW  Elec       q    Type
REMARK                         _______ _______ _______ _____ _____    ______ ____
ROOT
ATOM      1  O   LIG    1       -0.194   0.950   1.777  0.00  0.00    -0.264 OA
ATOM      2  C   LIG    1       -0.097   0.155   0.812  0.00  0.00    +0.293 A 
ATOM      3  N   LIG    1        1.055  -0.173   0.212  0.00  0.00    -0.216 N 
ATOM      4  N   LIG    1        0.794  -1.028  -0.761  0.00  0.00    -0.282 N 
ATOM      5  C   LIG    1       -0.533  -1.268  -0.808  0.00  0.00    +0.059 A 
ATOM      6  C   LIG    1       -1.271  -2.164  -1.743  0.00  0.00    +0.067 C 
ATOM      7  C   LIG    1        1.758  -1.617  -1.639  0.00  0.00    +0.171 C 
ATOM      8  C   LIG    1       -1.151  -0.518   0.199  0.00  0.00    +0.115 A 
ENDROOT
BRANCH   3   9
ATOM      9  C   LIG    1        2.354   0.301   0.543  0.00  0.00    +0.067 A 
ATOM     10  C   LIG    1        3.402  -0.593   0.731  0.00  0.00    +0.028 A 
ATOM     11  C   LIG    1        4.665  -0.140   1.053  0.00  0.00    +0.002 A 
ATOM     12  C   LIG    1        4.902   1.213   1.191  0.00  0.00    +0.000 A 
ATOM     13  C   LIG    1        3.880   2.131   1.010  0.00  0.00    +0.002 A 
ATOM     14  C   LIG    1        2.640   1.645   0.692  0.00  0.00    +0.028 A 
ENDBRANCH   3   9
BRANCH   8  15
ATOM     15  N   LIG    1       -2.528  -0.459   0.519  0.00  0.00    -0.336 N 
ATOM     16  H   LIG    1       -2.882  -1.156   1.226  0.00  0.00    +0.147 HD
BRANCH  15  17
ATOM     17  C   LIG    1       -3.429   0.511  -0.091  0.00  0.00    +0.064 C 
ATOM     18  C   LIG    1       -4.818   0.295   0.457  0.00  0.00    +0.027 C 
ATOM     19  C   LIG    1       -3.019   1.920   0.183  0.00  0.00    +0.027 C 
ENDBRANCH  15  17
ENDBRANCH   8  15
TORSDOF 3
