REMARK  Name = molecules/XPCFTKFZXHTYIP-PMACEKPBSA-N.pdb
REMARK                            x       y       z     vdW  Elec       q    Type
REMARK                         _______ _______ _______ _____ _____    ______ ____
ROOT
ATOM      1  N   LIG    1       -3.216  -1.079   0.723  0.00  0.00    -0.259 N 
ATOM      2  C   LIG    1       -1.785  -0.771   0.634  0.00  0.00    +0.237 C 
ATOM      3  O   LIG    1       -1.137  -1.426   1.478  0.00  0.00    -0.274 OA
ATOM      4  C   LIG    1       -1.146   0.169  -0.297  0.00  0.00    +0.142 C 
ATOM      5  C   LIG    1       -1.742   0.089  -1.693  0.00  0.00    +0.033 C 
ATOM      6  C   LIG    1       -3.074   0.815  -1.757  0.00  0.00    +0.039 C 
ATOM      7  C   LIG    1       -4.107  -0.234  -1.464  0.00  0.00    -0.026 A 
ATOM      8  C   LIG    1       -5.070  -0.336  -2.413  0.00  0.00    +0.005 A 
ATOM      9  C   LIG    1       -6.066  -1.272  -2.283  0.00  0.00    +0.000 A 
ATOM     10  C   LIG    1       -6.111  -2.129  -1.185  0.00  0.00    +0.002 A 
ATOM     11  C   LIG    1       -5.139  -2.032  -0.220  0.00  0.00    +0.024 A 
ATOM     12  C   LIG    1       -4.142  -1.089  -0.354  0.00  0.00    +0.040 A 
ENDROOT
BRANCH   4  13
ATOM     13  N   LIG    1        0.260  -0.054  -0.389  0.00  0.00    -0.293 NA
ATOM     14  H   LIG    1        0.510  -0.975  -0.812  0.00  0.00    +0.123 HD
BRANCH  13  15
ATOM     15  C   LIG    1        1.075   0.199   0.726  0.00  0.00    +0.164 C 
BRANCH  15  16
ATOM     16  C   LIG    1        1.312   1.660   0.963  0.00  0.00    +0.324 C 
ATOM     17  O   LIG    1        0.783   2.482   0.188  0.00  0.00    -0.249 OA
BRANCH  16  18
ATOM     18  O   LIG    1        2.088   2.120   1.994  0.00  0.00    -0.464 OA
BRANCH  18  19
ATOM     19  C   LIG    1        2.357   3.458   2.275  0.00  0.00    +0.229 C 
ATOM     20  C   LIG    1        3.055   4.170   1.136  0.00  0.00    +0.048 C 
ENDBRANCH  18  19
ENDBRANCH  16  18
ENDBRANCH  15  16
BRANCH  15  21
ATOM     21  C   LIG    1        2.398  -0.521   0.537  0.00  0.00    +0.035 C 
BRANCH  21  22
ATOM     22  C   LIG    1        3.102  -0.039  -0.709  0.00  0.00    +0.037 C 
BRANCH  22  23
ATOM     23  C   LIG    1        4.404  -0.711  -0.902  0.00  0.00    -0.047 A 
ATOM     24  C   LIG    1        5.509  -0.082  -0.328  0.00  0.00    +0.003 A 
ATOM     25  C   LIG    1        6.746  -0.667  -0.478  0.00  0.00    +0.000 A 
ATOM     26  C   LIG    1        6.884  -1.840  -1.177  0.00  0.00    +0.000 A 
ATOM     27  C   LIG    1        5.794  -2.458  -1.742  0.00  0.00    +0.000 A 
ATOM     28  C   LIG    1        4.541  -1.888  -1.603  0.00  0.00    +0.003 A 
ENDBRANCH  22  23
ENDBRANCH  21  22
ENDBRANCH  15  21
ENDBRANCH  13  15
ENDBRANCH   4  13
BRANCH   1  29
ATOM     29  C   LIG    1       -3.724  -1.379   2.031  0.00  0.00    +0.234 C 
BRANCH  29  30
ATOM     30  C   LIG    1       -4.183  -0.122   2.710  0.00  0.00    +0.323 C 
ATOM     31  O   LIG    1       -4.108   0.947   2.102  0.00  0.00    -0.249 OA
BRANCH  30  32
ATOM     32  O   LIG    1       -4.671  -0.196   3.978  0.00  0.00    -0.480 OA
ATOM     33  H   LIG    1       -5.656  -0.040   4.140  0.00  0.00    +0.295 HD
ENDBRANCH  30  32
ENDBRANCH  29  30
ENDBRANCH   1  29
TORSDOF 11
