REMARK  Name = molecules/XPFRXWCVYUEORT-UHFFFAOYSA-N.pdb
REMARK                            x       y       z     vdW  Elec       q    Type
REMARK                         _______ _______ _______ _____ _____    ______ ____
ROOT
ATOM      1  N   LIG    1        3.406  -0.307   1.393  0.00  0.00    -0.313 N 
ATOM      2  H   LIG    1        2.752  -0.141   2.190  0.00  0.00    +0.146 HD
ATOM      3  H   LIG    1        4.300  -0.801   1.583  0.00  0.00    +0.146 HD
ATOM      4  C   LIG    1        2.995   0.166   0.121  0.00  0.00    +0.303 C 
ATOM      5  N   LIG    1        1.642   0.024  -0.285  0.00  0.00    -0.240 N 
ATOM      6  H   LIG    1        0.974  -0.443   0.383  0.00  0.00    +0.159 HD
ATOM      7  C   LIG    1        1.212   0.505  -1.546  0.00  0.00    +0.225 C 
ATOM      8  O   LIG    1        1.986   1.060  -2.348  0.00  0.00    -0.275 OA
ATOM      9  O   LIG    1        3.851   0.712  -0.636  0.00  0.00    -0.253 OA
ENDROOT
BRANCH   7  10
ATOM     10  C   LIG    1       -0.206   0.346  -1.928  0.00  0.00    +0.131 C 
BRANCH  10  11
ATOM     11  C   LIG    1       -1.071   0.067  -0.746  0.00  0.00    -0.039 A 
ATOM     12  C   LIG    1       -1.593   1.109  -0.015  0.00  0.00    +0.004 A 
ATOM     13  C   LIG    1       -2.393   0.912   1.094  0.00  0.00    +0.000 A 
ATOM     14  C   LIG    1       -2.675  -0.386   1.476  0.00  0.00    +0.000 A 
ATOM     15  C   LIG    1       -2.163  -1.427   0.757  0.00  0.00    +0.000 A 
ATOM     16  C   LIG    1       -1.366  -1.216  -0.346  0.00  0.00    +0.004 A 
ENDBRANCH  10  11
ENDBRANCH   7  10
TORSDOF 2
