REMARK  Name = molecules/XPIJWUTXQAGSLK-UHFFFAOYSA-N.pdb
REMARK                            x       y       z     vdW  Elec       q    Type
REMARK                         _______ _______ _______ _____ _____    ______ ____
ROOT
ATOM      1  C   LIG    1       -0.622  -0.173  -0.090  0.00  0.00    -0.019 A 
ATOM      2  C   LIG    1        0.348   0.157   0.870  0.00  0.00    -0.012 A 
ATOM      3  C   LIG    1        0.015   0.585   2.140  0.00  0.00    +0.009 A 
ATOM      4  C   LIG    1       -1.297   0.695   2.491  0.00  0.00    +0.014 A 
ATOM      5  C   LIG    1       -2.279   0.379   1.580  0.00  0.00    +0.046 A 
ATOM      6  C   LIG    1       -3.599   0.482   1.977  0.00  0.00    +0.203 A 
ATOM      7  O   LIG    1       -3.830   0.884   3.167  0.00  0.00    -0.286 OA
ATOM      8  C   LIG    1       -4.582   0.158   1.103  0.00  0.00    +0.122 A 
ATOM      9  C   LIG    1       -4.237  -0.265  -0.156  0.00  0.00    +0.105 A 
ATOM     10  N   LIG    1       -2.934  -0.374  -0.576  0.00  0.00    -0.342 N 
ATOM     11  C   LIG    1       -1.945  -0.063   0.266  0.00  0.00    +0.057 A 
ATOM     12  C   LIG    1       -0.212  -0.583  -1.438  0.00  0.00    +0.046 C 
ENDROOT
BRANCH   2  13
ATOM     13  C   LIG    1        1.782   0.020   0.629  0.00  0.00    +0.001 A 
ATOM     14  C   LIG    1        2.606   1.150   0.593  0.00  0.00    +0.016 A 
ATOM     15  C   LIG    1        3.947   0.951   0.354  0.00  0.00    -0.010 A 
ATOM     16  C   LIG    1        4.867   2.142   0.308  0.00  0.00    +0.047 C 
ATOM     17  C   LIG    1        4.497  -0.294   0.152  0.00  0.00    +0.121 A 
ATOM     18  N   LIG    1        3.678  -1.377   0.192  0.00  0.00    -0.240 NA
ATOM     19  C   LIG    1        2.361  -1.218   0.423  0.00  0.00    +0.121 A 
BRANCH  17  20
ATOM     20  N   LIG    1        5.884  -0.437  -0.089  0.00  0.00    -0.332 N 
ATOM     21  H   LIG    1        6.483   0.408  -0.113  0.00  0.00    +0.147 HD
ATOM     22  C   LIG    1        6.448  -1.755  -0.300  0.00  0.00    +0.127 C 
ENDBRANCH  17  20
ENDBRANCH   2  13
BRANCH  10  23
ATOM     23  C   LIG    1       -2.668  -0.824  -1.923  0.00  0.00    +0.087 C 
ATOM     24  C   LIG    1       -3.857  -0.358  -2.853  0.00  0.00    +0.027 C 
ATOM     25  C   LIG    1       -2.501   0.076  -3.093  0.00  0.00    +0.027 C 
ENDBRANCH  10  23
BRANCH   8  26
ATOM     26  C   LIG    1       -5.973   0.265   1.520  0.00  0.00    +0.342 C 
ATOM     27  O   LIG    1       -6.913  -0.027   0.736  0.00  0.00    -0.245 OA
BRANCH  26  28
ATOM     28  O   LIG    1       -6.310   0.691   2.789  0.00  0.00    -0.477 OA
ATOM     29  H   LIG    1       -7.203   1.021   3.065  0.00  0.00    +0.295 HD
ENDBRANCH  26  28
ENDBRANCH   8  26
TORSDOF 5
