REMARK  Name = molecules/XPPXHQUWVYMTDM-OAHLLOKOSA-N.pdb
REMARK                            x       y       z     vdW  Elec       q    Type
REMARK                         _______ _______ _______ _____ _____    ______ ____
ROOT
ATOM      1  C   LIG    1        0.764  -0.598  -0.044  0.00  0.00    +0.209 C 
ENDROOT
BRANCH   1   2
ATOM      2  C   LIG    1        1.671   0.443  -0.599  0.00  0.00    -0.007 A 
ATOM      3  C   LIG    1        1.807   1.688  -0.004  0.00  0.00    +0.008 A 
ATOM      4  C   LIG    1        2.638   2.659  -0.502  0.00  0.00    +0.020 A 
ATOM      5  C   LIG    1        3.385   2.440  -1.630  0.00  0.00    +0.041 A 
ATOM      6  C   LIG    1        3.272   1.212  -2.245  0.00  0.00    +0.020 A 
ATOM      7 CL   LIG    1        4.461   3.688  -2.280  0.00  0.00    -0.084 Cl
ATOM      8  C   LIG    1        2.434   0.240  -1.738  0.00  0.00    +0.008 A 
ENDBRANCH   1   2
BRANCH   1   9
ATOM      9  C   LIG    1        1.403  -1.405   1.045  0.00  0.00    +0.028 C 
ATOM     10  C   LIG    1        0.491  -2.553   1.384  0.00  0.00    +0.011 C 
ATOM     11  C   LIG    1        2.675  -2.010   0.481  0.00  0.00    +0.011 C 
ENDBRANCH   1   9
BRANCH   1  12
ATOM     12  O   LIG    1       -0.490  -0.065   0.312  0.00  0.00    -0.453 OA
BRANCH  12  13
ATOM     13  C   LIG    1       -1.682  -0.396  -0.261  0.00  0.00    +0.341 C 
ATOM     14  O   LIG    1       -1.696  -1.232  -1.176  0.00  0.00    -0.245 OA
BRANCH  13  15
ATOM     15  C   LIG    1       -2.957   0.210   0.172  0.00  0.00    +0.077 A 
ATOM     16  C   LIG    1       -2.954   1.131   1.178  0.00  0.00    +0.125 A 
ATOM     17  N   LIG    1       -4.091   1.696   1.591  0.00  0.00    -0.262 NA
ATOM     18  C   LIG    1       -5.289   1.388   1.040  0.00  0.00    +0.111 A 
ATOM     19  C   LIG    1       -5.305   0.457   0.022  0.00  0.00    +0.020 A 
ATOM     20  C   LIG    1       -4.147  -0.144  -0.428  0.00  0.00    +0.018 A 
ENDBRANCH  13  15
ENDBRANCH  12  13
ENDBRANCH   1  12
TORSDOF 5
