REMARK  Name = molecules/XPSQPHWEGNHMSK-SECBINFHSA-N.pdb
REMARK                            x       y       z     vdW  Elec       q    Type
REMARK                         _______ _______ _______ _____ _____    ______ ____
ROOT
ATOM      1  C   LIG    1        3.442  -0.229   0.071  0.00  0.00    +0.037 A 
ATOM      2  C   LIG    1        2.127   0.231   0.160  0.00  0.00    +0.023 A 
ATOM      3  C   LIG    1        1.083  -0.654   0.325  0.00  0.00    +0.004 A 
ATOM      4  C   LIG    1       -0.292  -0.483   0.440  0.00  0.00    -0.018 A 
ATOM      5  C   LIG    1       -0.903  -1.706   0.589  0.00  0.00    +0.020 A 
ATOM      6  C   LIG    1       -2.370  -1.734   0.723  0.00  0.00    +0.055 C 
ATOM      7  C   LIG    1       -2.992  -0.825  -0.317  0.00  0.00    +0.025 C 
ATOM      8  C   LIG    1       -2.426   0.552  -0.324  0.00  0.00    +0.058 C 
ATOM      9  N   LIG    1        0.090  -2.615   0.566  0.00  0.00    -0.358 N 
ATOM     10  H   LIG    1       -0.082  -3.638   0.659  0.00  0.00    +0.166 HD
ATOM     11  C   LIG    1       -1.156   0.725   0.435  0.00  0.00    +0.056 C 
ATOM     12  C   LIG    1        1.283  -2.015   0.410  0.00  0.00    +0.047 A 
ATOM     13  C   LIG    1        2.590  -2.480   0.323  0.00  0.00    +0.027 A 
ATOM     14  C   LIG    1        3.635  -1.594   0.157  0.00  0.00    +0.015 A 
ENDROOT
BRANCH   1  15
ATOM     15  C   LIG    1        4.516   0.717  -0.112  0.00  0.00    +0.242 C 
ATOM     16  O   LIG    1        5.704   0.287  -0.044  0.00  0.00    -0.270 OA
ATOM     17  N   LIG    1        4.294   2.088  -0.360  0.00  0.00    -0.325 N 
ATOM     18  H   LIG    1        3.765   2.707   0.281  0.00  0.00    +0.145 HD
ATOM     19  H   LIG    1        4.708   2.464  -1.264  0.00  0.00    +0.145 HD
ENDBRANCH   1  15
BRANCH   8  20
ATOM     20  N   LIG    1       -3.436   1.475   0.166  0.00  0.00    -0.316 NA
ATOM     21  C   LIG    1       -3.063   2.856  -0.022  0.00  0.00    +0.101 C 
ATOM     22  H   LIG    1       -4.326   1.304  -0.336  0.00  0.00    +0.122 HD
ENDBRANCH   8  20
TORSDOF 2
