REMARK  Name = molecules/XQCGNURMLWFQJR-ZNDDOCHDSA-N.pdb
REMARK                            x       y       z     vdW  Elec       q    Type
REMARK                         _______ _______ _______ _____ _____    ______ ____
ROOT
ATOM      1  C   LIG    1       -0.415  -1.351  -0.049  0.00  0.00    +0.058 C 
ATOM      2  C   LIG    1        0.381  -0.806   1.093  0.00  0.00    +0.081 C 
ATOM      3  C   LIG    1        0.232   0.637   1.359  0.00  0.00    +0.036 C 
ATOM      4  C   LIG    1       -0.967   1.277   0.705  0.00  0.00    +0.009 C 
ATOM      5  C   LIG    1       -2.098   0.288   0.812  0.00  0.00    +0.025 C 
ATOM      6  C   LIG    1       -3.435   0.907   0.553  0.00  0.00    +0.075 C 
ATOM      7  C   LIG    1       -4.518  -0.085   0.716  0.00  0.00    +0.004 C 
ATOM      8  C   LIG    1       -5.087   0.115   2.119  0.00  0.00    +0.014 C 
ATOM      9  C   LIG    1       -4.198  -1.508   0.448  0.00  0.00    +0.010 C 
ATOM     10  C   LIG    1       -2.862  -1.903   0.011  0.00  0.00    +0.005 C 
ATOM     11  C   LIG    1       -5.590   0.341  -0.271  0.00  0.00    +0.027 C 
ATOM     12  C   LIG    1       -5.139   1.697  -0.789  0.00  0.00    +0.011 C 
ATOM     13  C   LIG    1       -3.600   1.511  -0.791  0.00  0.00    +0.036 C 
ATOM     14  C   LIG    1        1.847  -1.148   0.830  0.00  0.00    +0.067 C 
ATOM     15  C   LIG    1        2.410  -0.359  -0.301  0.00  0.00    +0.124 C 
ATOM     16  C   LIG    1        1.416  -0.273  -1.432  0.00  0.00    +0.033 C 
ATOM     17  C   LIG    1       -1.821  -0.847  -0.126  0.00  0.00    +0.011 C 
ATOM     18  C   LIG    1        0.305  -1.254  -1.380  0.00  0.00    +0.020 C 
ENDROOT
BRANCH  11  19
ATOM     19  C   LIG    1       -6.952   0.336   0.250  0.00  0.00    -0.022 C 
ATOM     20  C   LIG    1       -7.715  -0.824   0.763  0.00  0.00    +0.264 C 
ATOM     21  O   LIG    1       -8.971  -0.368   1.181  0.00  0.00    -0.457 OA
ATOM     22  C   LIG    1       -9.061   0.980   0.911  0.00  0.00    +0.332 C 
ATOM     23  O   LIG    1      -10.086   1.688   1.142  0.00  0.00    -0.246 OA
ATOM     24  C   LIG    1       -7.791   1.385   0.334  0.00  0.00    +0.094 C 
ENDBRANCH  11  19
BRANCH   1  25
ATOM     25  C   LIG    1       -0.503  -2.845   0.200  0.00  0.00    +0.233 C 
ATOM     26  O   LIG    1       -0.744  -3.583  -0.740  0.00  0.00    -0.300 OA
ENDBRANCH   1  25
BRANCH   2  27
ATOM     27  O   LIG    1        0.036  -1.565   2.236  0.00  0.00    -0.388 OA
ATOM     28  H   LIG    1       -0.121  -1.011   3.017  0.00  0.00    +0.210 HD
ENDBRANCH   2  27
BRANCH   6  29
ATOM     29  O   LIG    1       -3.577   1.937   1.499  0.00  0.00    -0.388 OA
ATOM     30  H   LIG    1       -3.185   2.761   1.111  0.00  0.00    +0.210 HD
ENDBRANCH   6  29
BRANCH  15  31
ATOM     31  O   LIG    1        3.608  -0.964  -0.709  0.00  0.00    -0.348 OA
BRANCH  31  32
ATOM     32  C   LIG    1        4.687  -0.085  -0.698  0.00  0.00    +0.253 C 
ATOM     33  C   LIG    1        5.678  -0.572   0.315  0.00  0.00    +0.095 C 
ATOM     34  C   LIG    1        7.076  -0.057   0.055  0.00  0.00    +0.154 C 
ATOM     35  C   LIG    1        7.098   1.140  -0.829  0.00  0.00    +0.172 C 
ATOM     36  C   LIG    1        6.219   1.033  -2.025  0.00  0.00    +0.149 C 
ATOM     37  C   LIG    1        7.020   0.896  -3.325  0.00  0.00    +0.041 C 
ATOM     38  O   LIG    1        5.210   0.101  -1.956  0.00  0.00    -0.346 OA
BRANCH  34  39
ATOM     39  O   LIG    1        7.682   0.308   1.266  0.00  0.00    -0.377 OA
ATOM     40  C   LIG    1        8.808  -0.454   1.490  0.00  0.00    +0.194 C 
ENDBRANCH  34  39
BRANCH  35  41
ATOM     41  O   LIG    1        6.870   2.331  -0.130  0.00  0.00    -0.387 OA
ATOM     42  H   LIG    1        7.096   3.057  -0.762  0.00  0.00    +0.210 HD
ENDBRANCH  35  41
ENDBRANCH  31  32
ENDBRANCH  15  31
TORSDOF 8
