REMARK  Name = molecules/XQSLKIBWQSTAGK-UHFFFAOYSA-N.pdb
REMARK                            x       y       z     vdW  Elec       q    Type
REMARK                         _______ _______ _______ _____ _____    ______ ____
ROOT
ATOM      1  C   LIG    1        0.407  -0.116   0.190  0.00  0.00    -0.007 C 
ENDROOT
BRANCH   1   2
ATOM      2  C   LIG    1        1.633   0.771   0.406  0.00  0.00    +0.119 C 
BRANCH   2   3
ATOM      3  C   LIG    1        2.883   0.017   0.245  0.00  0.00    +0.307 C 
ATOM      4  O   LIG    1        3.351  -0.729   1.166  0.00  0.00    -0.251 OA
BRANCH   3   6
ATOM      5  C   LIG    1        4.802  -0.598  -1.163  0.00  0.00    +0.280 C 
ATOM      6  O   LIG    1        3.590   0.099  -0.927  0.00  0.00    -0.468 OA
ENDBRANCH   3   6
ENDBRANCH   2   3
ENDBRANCH   1   2
BRANCH   1   7
ATOM      7  C   LIG    1       -0.799   0.776   0.385  0.00  0.00    -0.076 C 
BRANCH   7   8
ATOM      8  N   LIG    1       -2.051   0.109   0.219  0.00  0.00    +0.374 N 
ATOM      9  C   LIG    1       -2.933   0.568   1.294  0.00  0.00    -0.093 C 
ATOM     10  C   LIG    1       -1.972  -1.333   0.361  0.00  0.00    -0.093 C 
ATOM     11  C   LIG    1       -2.711   0.381  -1.034  0.00  0.00    -0.093 C 
ENDBRANCH   7   8
ENDBRANCH   1   7
TORSDOF 5
