REMARK  Name = molecules/XQTARQNQIVVBRX-UHFFFAOYSA-N.pdb
REMARK                            x       y       z     vdW  Elec       q    Type
REMARK                         _______ _______ _______ _____ _____    ______ ____
ROOT
ATOM      1  C   LIG    1       -1.974  -0.222   0.203  0.00  0.00    +0.035 A 
ATOM      2  C   LIG    1       -2.444  -0.497   1.465  0.00  0.00    +0.023 A 
ATOM      3  C   LIG    1       -3.760  -0.176   1.803  0.00  0.00    +0.002 A 
ATOM      4  C   LIG    1       -4.605   0.417   0.889  0.00  0.00    +0.012 A 
ATOM      5  C   LIG    1       -4.163   0.705  -0.383  0.00  0.00    +0.022 A 
ATOM      6  C   LIG    1       -2.866   0.382  -0.696  0.00  0.00    +0.035 A 
ENDROOT
BRANCH   5   7
ATOM      7  C   LIG    1       -5.048   1.337  -1.372  0.00  0.00    +0.179 A 
ATOM      8  N   LIG    1       -6.318   1.684  -1.153  0.00  0.00    -0.239 N 
ATOM      9  H   LIG    1       -6.841   1.553  -0.264  0.00  0.00    +0.192 HD
ATOM     10  N   LIG    1       -6.808   2.231  -2.277  0.00  0.00    -0.046 NA
ATOM     11  N   LIG    1       -5.848   2.227  -3.197  0.00  0.00    -0.023 NA
ATOM     12  N   LIG    1       -4.768   1.675  -2.632  0.00  0.00    -0.108 NA
ENDBRANCH   5   7
BRANCH   1  13
ATOM     13  N   LIG    1       -0.660  -0.510  -0.228  0.00  0.00    -0.276 N 
ATOM     14  C   LIG    1        0.353  -1.106   0.530  0.00  0.00    +0.326 C 
ATOM     15  O   LIG    1        0.223  -1.466   1.705  0.00  0.00    -0.263 OA
ATOM     16  H   LIG    1       -0.453  -0.228  -1.251  0.00  0.00    +0.155 HD
BRANCH  14  17
ATOM     17  C   LIG    1        1.665  -1.331  -0.085  0.00  0.00    +0.395 C 
ATOM     18  O   LIG    1        1.881  -0.994  -1.275  0.00  0.00    -0.240 OA
BRANCH  17  19
ATOM     19  O   LIG    1        2.702  -1.915   0.615  0.00  0.00    -0.458 OA
BRANCH  19  20
ATOM     20  C   LIG    1        3.931  -2.108  -0.010  0.00  0.00    +0.232 C 
BRANCH  20  21
ATOM     21  C   LIG    1        4.599  -0.868  -0.497  0.00  0.00    +0.041 C 
BRANCH  21  22
ATOM     22  C   LIG    1        4.864   0.085   0.665  0.00  0.00    -0.000 C 
ATOM     23  C   LIG    1        5.542   1.310   0.079  0.00  0.00    +0.004 C 
ENDBRANCH  21  22
ENDBRANCH  20  21
ENDBRANCH  19  20
ENDBRANCH  17  19
ENDBRANCH  14  17
ENDBRANCH   1  13
TORSDOF 7
