REMARK  Name = molecules/XQYZDYMELSJDRZ-UHFFFAOYSA-N.pdb
REMARK                            x       y       z     vdW  Elec       q    Type
REMARK                         _______ _______ _______ _____ _____    ______ ____
ROOT
ATOM      1  C   LIG    1       -0.530   0.067   1.920  0.00  0.00    +0.053 A 
ATOM      2  N   LIG    1        0.048  -0.689   2.909  0.00  0.00    -0.259 NA
ATOM      3  C   LIG    1       -0.244  -1.990   3.058  0.00  0.00    +0.111 A 
ATOM      4  C   LIG    1       -1.123  -2.651   2.253  0.00  0.00    +0.028 A 
ATOM      5  C   LIG    1       -1.733  -1.931   1.241  0.00  0.00    -0.011 A 
ATOM      6  C   LIG    1       -2.632  -2.576   0.424  0.00  0.00    +0.058 A 
ATOM      7  C   LIG    1       -3.255  -1.865  -0.578  0.00  0.00    +0.162 A 
ATOM      8  C   LIG    1       -2.930  -0.509  -0.706  0.00  0.00    +0.162 A 
ATOM      9  C   LIG    1       -2.027   0.110   0.125  0.00  0.00    +0.059 A 
ATOM     10  C   LIG    1       -1.410  -0.594   1.116  0.00  0.00    +0.007 A 
ENDROOT
BRANCH   8  11
ATOM     11  O   LIG    1       -3.579   0.182  -1.730  0.00  0.00    -0.491 OA
ATOM     12  C   LIG    1       -3.299   1.538  -1.909  0.00  0.00    +0.277 C 
ENDBRANCH   8  11
BRANCH   7  13
ATOM     13  O   LIG    1       -4.177  -2.436  -1.452  0.00  0.00    -0.491 OA
ATOM     14  C   LIG    1       -4.463  -3.808  -1.274  0.00  0.00    +0.277 C 
ENDBRANCH   7  13
BRANCH   1  15
ATOM     15  C   LIG    1       -0.096   1.446   1.844  0.00  0.00    +0.091 C 
BRANCH  15  16
ATOM     16  C   LIG    1        0.975   1.557   0.792  0.00  0.00    -0.038 A 
ATOM     17  C   LIG    1        2.248   1.060   1.078  0.00  0.00    +0.053 A 
ATOM     18  C   LIG    1        3.318   1.106   0.233  0.00  0.00    +0.162 A 
ATOM     19  C   LIG    1        3.114   1.704  -1.019  0.00  0.00    +0.161 A 
ATOM     20  C   LIG    1        1.874   2.202  -1.327  0.00  0.00    +0.049 A 
ATOM     21  C   LIG    1        0.811   2.129  -0.426  0.00  0.00    +0.008 A 
BRANCH  18  22
ATOM     22  O   LIG    1        4.561   0.605   0.547  0.00  0.00    -0.491 OA
ATOM     23  C   LIG    1        4.889  -0.012   1.759  0.00  0.00    +0.277 C 
ENDBRANCH  18  22
BRANCH  19  24
ATOM     24  O   LIG    1        4.198   1.751  -1.873  0.00  0.00    -0.491 OA
ATOM     25  C   LIG    1        4.032   2.345  -3.148  0.00  0.00    +0.277 C 
ENDBRANCH  19  24
ENDBRANCH  15  16
ENDBRANCH   1  15
TORSDOF 6
