REMARK  Name = molecules/XRCFXMGQEVUZFC-UHFFFAOYSA-N.pdb
REMARK                            x       y       z     vdW  Elec       q    Type
REMARK                         _______ _______ _______ _____ _____    ______ ____
ROOT
ATOM      1  O   LIG    1        1.364  -2.350  -0.825  0.00  0.00    -0.291 OA
ATOM      2  C   LIG    1        1.558  -1.125  -0.749  0.00  0.00    +0.179 C 
ATOM      3  C   LIG    1        2.744  -0.499  -0.192  0.00  0.00    +0.029 A 
ATOM      4  C   LIG    1        3.909  -1.019   0.321  0.00  0.00    +0.012 A 
ATOM      5  C   LIG    1        4.892  -0.170   0.793  0.00  0.00    +0.001 A 
ATOM      6  C   LIG    1        4.721   1.207   0.758  0.00  0.00    +0.001 A 
ATOM      7  C   LIG    1        3.561   1.718   0.247  0.00  0.00    +0.012 A 
ATOM      8  C   LIG    1        2.568   0.866  -0.230  0.00  0.00    +0.029 A 
ATOM      9  C   LIG    1        1.277   1.219  -0.805  0.00  0.00    +0.179 C 
ATOM     10  O   LIG    1        0.797   2.369  -0.940  0.00  0.00    -0.291 OA
ATOM     11  C   LIG    1        0.654  -0.070  -1.195  0.00  0.00    +0.161 C 
ENDROOT
BRANCH  11  12
ATOM     12  C   LIG    1       -0.681  -0.138  -0.518  0.00  0.00    -0.029 A 
ATOM     13  C   LIG    1       -0.782  -0.095   0.855  0.00  0.00    +0.008 A 
ATOM     14  C   LIG    1       -2.025  -0.158   1.478  0.00  0.00    +0.046 A 
ATOM     15  C   LIG    1       -3.194  -0.265   0.769  0.00  0.00    +0.120 A 
ATOM     16  C   LIG    1       -3.096  -0.308  -0.606  0.00  0.00    +0.046 A 
ATOM     17  C   LIG    1       -1.853  -0.245  -1.234  0.00  0.00    +0.008 A 
BRANCH  15  18
ATOM     18  O   LIG    1       -4.403  -0.324   1.450  0.00  0.00    -0.495 OA
ATOM     19  C   LIG    1       -5.647  -0.433   0.827  0.00  0.00    +0.277 C 
ENDBRANCH  15  18
ENDBRANCH  11  12
TORSDOF 2
