REMARK  Name = molecules/XREUEWVEMYWFFA-CSKJXFQVSA-N.pdb
REMARK                            x       y       z     vdW  Elec       q    Type
REMARK                         _______ _______ _______ _____ _____    ______ ____
ROOT
ATOM      1  C   LIG    1       -0.292  -0.202  -1.569  0.00  0.00    +0.158 C 
ATOM      2  C   LIG    1        0.929  -0.005  -0.749  0.00  0.00    +0.030 A 
ATOM      3  C   LIG    1        1.264  -0.939   0.254  0.00  0.00    +0.134 A 
ATOM      4  C   LIG    1        2.396  -0.794   1.038  0.00  0.00    +0.078 A 
ATOM      5  C   LIG    1        2.754  -1.753   2.078  0.00  0.00    +0.202 C 
ATOM      6  C   LIG    1        3.964  -1.549   2.877  0.00  0.00    +0.075 A 
ATOM      7  C   LIG    1        4.295  -2.466   3.863  0.00  0.00    +0.128 A 
ATOM      8  C   LIG    1        5.471  -2.249   4.625  0.00  0.00    +0.046 A 
ATOM      9  C   LIG    1        6.280  -1.171   4.417  0.00  0.00    +0.004 A 
ATOM     10  C   LIG    1        5.951  -0.265   3.441  0.00  0.00    +0.012 A 
ATOM     11  C   LIG    1        4.792  -0.466   2.679  0.00  0.00    +0.037 A 
ATOM     12  C   LIG    1        4.447   0.498   1.646  0.00  0.00    +0.198 C 
ATOM     13  O   LIG    1        5.184   1.490   1.447  0.00  0.00    -0.286 OA
ATOM     14  O   LIG    1        2.005  -2.723   2.249  0.00  0.00    -0.286 OA
ATOM     15  C   LIG    1        3.223   0.292   0.837  0.00  0.00    +0.078 A 
ATOM     16  C   LIG    1        2.912   1.217  -0.140  0.00  0.00    +0.132 A 
ATOM     17  C   LIG    1        1.757   1.057  -0.929  0.00  0.00    +0.007 A 
ATOM     18  C   LIG    1        1.561   2.139  -1.932  0.00  0.00    +0.082 C 
ATOM     19  C   LIG    1        0.236   1.945  -2.615  0.00  0.00    +0.130 C 
ATOM     20  C   LIG    1        0.024   0.475  -2.911  0.00  0.00    +0.079 C 
ENDROOT
BRANCH  19  21
ATOM     21  C   LIG    1        0.291   2.693  -3.890  0.00  0.00    +0.162 C 
ATOM     22  C   LIG    1       -0.668   3.788  -4.147  0.00  0.00    +0.089 C 
ATOM     23  O   LIG    1        1.114   2.424  -4.737  0.00  0.00    -0.295 OA
ENDBRANCH  19  21
BRANCH   7  24
ATOM     24  O   LIG    1        3.532  -3.544   4.108  0.00  0.00    -0.506 OA
ATOM     25  H   LIG    1        2.738  -3.989   3.829  0.00  0.00    +0.292 HD
ENDBRANCH   7  24
BRANCH  16  26
ATOM     26  O   LIG    1        3.779   2.288  -0.298  0.00  0.00    -0.506 OA
ATOM     27  H   LIG    1        3.564   2.966  -1.011  0.00  0.00    +0.292 HD
ENDBRANCH  16  26
BRANCH   3  28
ATOM     28  O   LIG    1        0.408  -1.967   0.386  0.00  0.00    -0.506 OA
ATOM     29  H   LIG    1        0.388  -2.724   0.966  0.00  0.00    +0.292 HD
ENDBRANCH   3  28
BRANCH  19  30
ATOM     30  O   LIG    1       -0.797   2.461  -1.833  0.00  0.00    -0.381 OA
ATOM     31  H   LIG    1       -1.636   2.390  -2.381  0.00  0.00    +0.211 HD
ENDBRANCH  19  30
BRANCH   1  32
ATOM     32  O   LIG    1       -1.394   0.455  -1.046  0.00  0.00    -0.343 OA
BRANCH  32  33
ATOM     33  C   LIG    1       -2.473  -0.388  -0.807  0.00  0.00    +0.253 C 
ATOM     34  C   LIG    1       -2.836  -0.456   0.655  0.00  0.00    +0.082 C 
ATOM     35  C   LIG    1       -4.110   0.330   0.948  0.00  0.00    +0.087 C 
ATOM     36  C   LIG    1       -5.209  -0.329   0.145  0.00  0.00    +0.160 C 
ATOM     37  C   LIG    1       -4.723  -0.661  -1.248  0.00  0.00    +0.148 C 
ATOM     38  C   LIG    1       -4.721  -2.156  -1.462  0.00  0.00    +0.041 C 
ATOM     39  O   LIG    1       -3.547  -0.057  -1.590  0.00  0.00    -0.346 OA
BRANCH  35  40
ATOM     40  N   LIG    1       -4.419   0.135   2.353  0.00  0.00    -0.325 NA
ATOM     41  H   LIG    1       -4.129   0.991   2.878  0.00  0.00    +0.119 HD
ATOM     42  H   LIG    1       -5.456   0.051   2.470  0.00  0.00    +0.119 HD
ENDBRANCH  35  40
BRANCH  36  43
ATOM     43  O   LIG    1       -5.652  -1.502   0.779  0.00  0.00    -0.388 OA
ATOM     44  H   LIG    1       -6.584  -1.698   0.477  0.00  0.00    +0.210 HD
ENDBRANCH  36  43
ENDBRANCH  32  33
ENDBRANCH   1  32
TORSDOF 9
