REMARK  Name = molecules/XRQDFNLINLXZLB-CKIKVBCHSA-N.pdb
REMARK                            x       y       z     vdW  Elec       q    Type
REMARK                         _______ _______ _______ _____ _____    ______ ____
ROOT
ATOM      1  C   LIG    1        0.760   0.054  -0.002  0.00  0.00    +0.076 C 
ATOM      2  C   LIG    1        1.608  -1.205  -0.006  0.00  0.00    +0.153 C 
ATOM      3  C   LIG    1        2.858  -0.698   0.702  0.00  0.00    +0.058 C 
ATOM      4  C   LIG    1        3.150   0.479  -0.250  0.00  0.00    +0.130 C 
ATOM      5  C   LIG    1        1.784   1.107  -0.419  0.00  0.00    +0.136 C 
ENDROOT
BRANCH   4   6
ATOM      6  C   LIG    1        4.184   1.370   0.243  0.00  0.00    +0.310 C 
ATOM      7  O   LIG    1        5.228   1.552  -0.421  0.00  0.00    -0.251 OA
BRANCH   6   8
ATOM      8  O   LIG    1        4.034   2.029   1.446  0.00  0.00    -0.480 OA
ATOM      9  H   LIG    1        4.265   3.022   1.540  0.00  0.00    +0.295 HD
ENDBRANCH   6   8
ENDBRANCH   4   6
BRANCH   2  10
ATOM     10  N   LIG    1        1.022  -2.329   0.644  0.00  0.00    -0.273 N 
ATOM     11  H   LIG    1        0.838  -3.188   0.035  0.00  0.00    +0.258 HD
BRANCH  10  12
ATOM     12  C   LIG    1        0.658  -2.449   1.994  0.00  0.00    +0.376 C 
ATOM     13  N   LIG    1        1.250  -1.614   2.962  0.00  0.00    -0.289 N 
ATOM     14  H   LIG    1        0.814  -0.754   3.328  0.00  0.00    +0.255 HD
ATOM     15  H   LIG    1        2.196  -1.899   3.325  0.00  0.00    +0.255 HD
BRANCH  12  16
ATOM     16  N   LIG    1       -0.208  -3.314   2.356  0.00  0.00    -0.130 NA
ATOM     17  H   LIG    1       -0.696  -3.971   1.730  0.00  0.00    +0.306 HD
ENDBRANCH  12  16
ENDBRANCH  10  12
ENDBRANCH   2  10
BRANCH   5  18
ATOM     18  O   LIG    1        1.662   1.391  -1.799  0.00  0.00    -0.391 OA
ATOM     19  H   LIG    1        2.109   0.642  -2.265  0.00  0.00    +0.210 HD
ENDBRANCH   5  18
BRANCH   1  20
ATOM     20  C   LIG    1       -0.352  -0.048  -1.009  0.00  0.00    +0.085 C 
BRANCH  20  21
ATOM     21  N   LIG    1       -1.135  -1.191  -0.745  0.00  0.00    -0.312 N 
ATOM     22  C   LIG    1       -1.876  -2.272  -0.496  0.00  0.00    +0.210 C 
ATOM     23  C   LIG    1       -2.815  -2.206   0.714  0.00  0.00    +0.109 C 
ATOM     24  O   LIG    1       -1.971  -3.409  -1.087  0.00  0.00    -0.276 OA
ATOM     25  H   LIG    1       -0.577  -1.832  -1.812  0.00  0.00    +0.149 HD
ENDBRANCH  20  21
BRANCH  20  26
ATOM     26  C   LIG    1       -1.206   1.171  -1.075  0.00  0.00    +0.009 C 
BRANCH  26  27
ATOM     27  C   LIG    1       -2.038   1.561   0.063  0.00  0.00    +0.002 C 
ATOM     28  C   LIG    1       -1.389   1.890   1.370  0.00  0.00    +0.004 C 
ENDBRANCH  26  27
BRANCH  26  29
ATOM     29  C   LIG    1       -2.154   1.035  -2.292  0.00  0.00    +0.002 C 
ATOM     30  C   LIG    1       -3.037   2.251  -2.394  0.00  0.00    +0.004 C 
ENDBRANCH  26  29
ENDBRANCH  20  26
ENDBRANCH   1  20
TORSDOF 11
