REMARK  Name = molecules/XRVCFZPJAHWYTB-UHFFFAOYSA-N.pdb
REMARK                            x       y       z     vdW  Elec       q    Type
REMARK                         _______ _______ _______ _____ _____    ______ ____
ROOT
ATOM      1  C   LIG    1       -0.005   0.076  -0.158  0.00  0.00    +0.016 C 
ENDROOT
BRANCH   1   3
ATOM      2  C   LIG    1        2.306  -0.843  -0.143  0.00  0.00    +0.004 C 
ATOM      3  C   LIG    1        0.876  -1.055  -0.579  0.00  0.00    +0.008 C 
ENDBRANCH   1   3
BRANCH   1   4
ATOM      4  C   LIG    1       -1.437  -0.089  -0.568  0.00  0.00    +0.008 C 
ATOM      5  C   LIG    1       -2.104  -1.300  -0.021  0.00  0.00    +0.004 C 
ENDBRANCH   1   4
BRANCH   1   6
ATOM      6  C   LIG    1        0.102   0.287   1.339  0.00  0.00    +0.165 C 
BRANCH   6   7
ATOM      7  O   LIG    1       -0.732   1.356   1.740  0.00  0.00    -0.394 OA
ATOM      8  H   LIG    1       -0.481   1.586   2.671  0.00  0.00    +0.209 HD
ENDBRANCH   6   7
ENDBRANCH   1   6
BRANCH   1   9
ATOM      9  C   LIG    1        0.495   1.360  -0.802  0.00  0.00    +0.165 C 
BRANCH   9  10
ATOM     10  O   LIG    1       -0.388   2.369  -0.354  0.00  0.00    -0.394 OA
ATOM     11  H   LIG    1       -0.344   3.163  -0.924  0.00  0.00    +0.209 HD
ENDBRANCH   9  10
ENDBRANCH   1   9
TORSDOF 6
