REMARK  Name = molecules/XRVDGNKRPOAQTN-FQEVSTJZSA-N.pdb
REMARK                            x       y       z     vdW  Elec       q    Type
REMARK                         _______ _______ _______ _____ _____    ______ ____
ROOT
ATOM      1  C   LIG    1       -1.363  -0.328   0.650  0.00  0.00    +0.259 A 
ATOM      2  O   LIG    1       -0.678  -0.513   1.756  0.00  0.00    -0.332 OA
ATOM      3  N   LIG    1        0.609  -0.567   1.501  0.00  0.00    -0.056 NA
ATOM      4  C   LIG    1        0.791  -0.413   0.181  0.00  0.00    +0.203 A 
ATOM      5  N   LIG    1       -0.442  -0.267  -0.324  0.00  0.00    -0.187 NA
ENDROOT
BRANCH   4   6
ATOM      6  C   LIG    1        2.096  -0.418  -0.467  0.00  0.00    +0.026 A 
ATOM      7  C   LIG    1        3.266  -0.589   0.256  0.00  0.00    -0.032 A 
ATOM      8  C   LIG    1        3.412  -0.786   1.722  0.00  0.00    +0.038 C 
ATOM      9  C   LIG    1        4.827  -1.355   1.831  0.00  0.00    +0.028 C 
ATOM     10  C   LIG    1        5.574  -0.795   0.643  0.00  0.00    +0.085 C 
ATOM     11  C   LIG    1        4.494  -0.592  -0.371  0.00  0.00    -0.027 A 
ATOM     12  C   LIG    1        4.617  -0.424  -1.748  0.00  0.00    +0.005 A 
ATOM     13  C   LIG    1        3.459  -0.253  -2.473  0.00  0.00    +0.001 A 
ATOM     14  C   LIG    1        2.239  -0.253  -1.833  0.00  0.00    +0.012 A 
BRANCH  10  15
ATOM     15  N   LIG    1        6.200   0.425   1.053  0.00  0.00    -0.307 NA
ATOM     16  H   LIG    1        5.490   1.105   1.406  0.00  0.00    +0.123 HD
BRANCH  15  17
ATOM     17  C   LIG    1        6.957   1.081   0.023  0.00  0.00    +0.109 C 
BRANCH  17  18
ATOM     18  C   LIG    1        8.192   0.300  -0.370  0.00  0.00    +0.171 C 
BRANCH  18  19
ATOM     19  O   LIG    1        8.895   0.970  -1.370  0.00  0.00    -0.394 OA
ATOM     20  H   LIG    1        8.585   0.712  -2.288  0.00  0.00    +0.209 HD
ENDBRANCH  18  19
ENDBRANCH  17  18
ENDBRANCH  15  17
ENDBRANCH  10  15
ENDBRANCH   4   6
BRANCH   1  22
ATOM     21  C   LIG    1       -3.430  -0.028  -0.660  0.00  0.00    +0.017 A 
ATOM     22  C   LIG    1       -2.823  -0.219   0.562  0.00  0.00    +0.041 A 
ATOM     23  C   LIG    1       -3.620  -0.300   1.655  0.00  0.00    +0.035 A 
ATOM     24  C   LIG    1       -4.986  -0.203   1.612  0.00  0.00    +0.094 A 
ATOM     25  C   LIG    1       -5.587  -0.008   0.365  0.00  0.00    +0.138 A 
ATOM     26  C   LIG    1       -4.804   0.078  -0.762  0.00  0.00    +0.048 A 
BRANCH  24  27
ATOM     27  C   LIG    1       -5.796  -0.295   2.808  0.00  0.00    +0.103 C 
ATOM     28  N   LIG    1       -6.430  -0.361   3.756  0.00  0.00    -0.191 NA
ENDBRANCH  24  27
BRANCH  25  29
ATOM     29  O   LIG    1       -6.960   0.093   0.295  0.00  0.00    -0.488 OA
BRANCH  29  30
ATOM     30  C   LIG    1       -7.735   0.285  -0.845  0.00  0.00    +0.167 C 
ATOM     31  C   LIG    1       -8.486   1.604  -0.692  0.00  0.00    +0.051 C 
ATOM     32  C   LIG    1       -8.727  -0.862  -0.956  0.00  0.00    +0.051 C 
ENDBRANCH  29  30
ENDBRANCH  25  29
ENDBRANCH   1  22
TORSDOF 9
