REMARK  Name = molecules/XRWSZZJLZRKHHD-WVWIJVSJSA-N.pdb
REMARK                            x       y       z     vdW  Elec       q    Type
REMARK                         _______ _______ _______ _____ _____    ______ ____
ROOT
ATOM      1  C   LIG    1       -0.600   2.208  -0.538  0.00  0.00    +0.195 C 
ATOM      2  C   LIG    1       -1.762   1.307  -0.078  0.00  0.00    +0.153 C 
ATOM      3  N   LIG    1       -1.336  -0.034  -0.310  0.00  0.00    -0.285 N 
ATOM      4  C   LIG    1       -1.950  -1.266  -0.082  0.00  0.00    +0.237 C 
ATOM      5  O   LIG    1       -1.104  -2.276  -0.112  0.00  0.00    -0.274 OA
ATOM      6  C   LIG    1        0.050   0.011  -0.825  0.00  0.00    +0.166 C 
ATOM      7  C   LIG    1        0.065   1.296  -1.588  0.00  0.00    +0.078 C 
ENDROOT
BRANCH   6   8
ATOM      8  C   LIG    1        1.020   0.048   0.306  0.00  0.00    +0.234 C 
ATOM      9  O   LIG    1        0.609   0.179   1.469  0.00  0.00    -0.274 OA
ATOM     10  N   LIG    1        2.386  -0.072   0.012  0.00  0.00    -0.299 N 
ATOM     11  H   LIG    1        2.578  -0.159  -1.061  0.00  0.00    +0.150 HD
BRANCH  10  12
ATOM     12  C   LIG    1        3.477  -0.064   0.906  0.00  0.00    +0.119 C 
ATOM     13  C   LIG    1        3.280  -0.047   2.374  0.00  0.00    +0.046 C 
ATOM     14  C   LIG    1        3.757   1.169   1.723  0.00  0.00    +0.046 C 
BRANCH  12  15
ATOM     15  C   LIG    1        4.700  -0.825   0.447  0.00  0.00    +0.256 C 
ATOM     16  O   LIG    1        5.726  -0.796   1.197  0.00  0.00    -0.272 OA
ATOM     17  N   LIG    1        4.679  -1.531  -0.767  0.00  0.00    -0.188 N 
ATOM     18  H   LIG    1        3.823  -1.552  -1.343  0.00  0.00    +0.176 HD
BRANCH  17  19
ATOM     19  S   LIG    1        6.038  -2.401  -1.340  0.00  0.00    +0.048 S 
ATOM     20  O   LIG    1        7.288  -1.575  -1.199  0.00  0.00    -0.155 OA
ATOM     21  O   LIG    1        5.812  -2.713  -2.809  0.00  0.00    -0.155 OA
BRANCH  19  22
ATOM     22  C   LIG    1        6.175  -3.925  -0.443  0.00  0.00    +0.151 C 
ATOM     23  C   LIG    1        6.902  -3.878   0.850  0.00  0.00    +0.030 C 
ATOM     24  C   LIG    1        7.524  -4.568  -0.350  0.00  0.00    +0.030 C 
ENDBRANCH  19  22
ENDBRANCH  17  19
ENDBRANCH  12  15
BRANCH  14  25
ATOM     25  C   LIG    1        5.152   1.641   1.750  0.00  0.00    -0.028 C 
ATOM     26  C   LIG    1        5.753   1.814   0.559  0.00  0.00    +0.004 C 
ENDBRANCH  14  25
ENDBRANCH  10  12
ENDBRANCH   6   8
BRANCH   1  27
ATOM     27  O   LIG    1       -1.047   3.344  -1.158  0.00  0.00    -0.471 OA
BRANCH  27  30
ATOM     28  C   LIG    1        0.943   6.364  -0.632  0.00  0.00    +0.160 A 
ATOM     29  N   LIG    1        0.535   5.086  -0.614  0.00  0.00    -0.217 NA
ATOM     30  C   LIG    1       -0.587   4.623  -1.154  0.00  0.00    +0.223 A 
ATOM     31  C   LIG    1       -1.398   5.569  -1.790  0.00  0.00    +0.049 A 
ATOM     32  C   LIG    1       -1.013   6.910  -1.834  0.00  0.00    +0.030 A 
ATOM     33  C   LIG    1       -1.790   7.874  -2.442  0.00  0.00    +0.014 A 
ATOM     34  C   LIG    1       -3.001   7.486  -3.032  0.00  0.00    +0.021 A 
ATOM     35  C   LIG    1       -3.401   6.170  -3.003  0.00  0.00    +0.042 A 
ATOM     36 CL   LIG    1       -4.938   5.730  -3.756  0.00  0.00    -0.084 Cl
ATOM     37  C   LIG    1       -2.598   5.232  -2.384  0.00  0.00    +0.034 A 
ATOM     38  C   LIG    1        0.169   7.348  -1.256  0.00  0.00    +0.146 A 
BRANCH  38  39
ATOM     39  O   LIG    1        0.582   8.648  -1.277  0.00  0.00    -0.493 OA
ATOM     40  C   LIG    1        1.793   9.043  -0.680  0.00  0.00    +0.277 C 
ENDBRANCH  38  39
ENDBRANCH  27  30
ENDBRANCH   1  27
BRANCH   4  41
ATOM     41  C   LIG    1       -3.301  -1.713   0.174  0.00  0.00    +0.168 C 
BRANCH  41  42
ATOM     42  N   LIG    1       -3.310  -2.673   1.290  0.00  0.00    -0.269 N 
ATOM     43  H   LIG    1       -3.512  -2.328   2.227  0.00  0.00    +0.153 HD
ATOM     44  C   LIG    1       -3.042  -4.051   1.050  0.00  0.00    +0.401 C 
ATOM     45  O   LIG    1       -2.785  -4.482  -0.079  0.00  0.00    -0.226 OA
BRANCH  44  46
ATOM     46  O   LIG    1       -3.062  -4.972   2.103  0.00  0.00    -0.445 OA
BRANCH  46  47
ATOM     47  C   LIG    1       -2.774  -6.345   1.872  0.00  0.00    +0.107 C 
ATOM     48  C   LIG    1       -2.990  -7.154   3.140  0.00  0.00    +0.055 C 
ATOM     49  C   LIG    1       -1.350  -6.556   1.419  0.00  0.00    +0.055 C 
ATOM     50  C   LIG    1       -3.738  -6.848   0.839  0.00  0.00    +0.055 C 
ENDBRANCH  46  47
ENDBRANCH  44  46
ENDBRANCH  41  42
BRANCH  41  51
ATOM     51  C   LIG    1       -4.465  -0.819   0.130  0.00  0.00    -0.011 C 
ATOM     52  C   LIG    1       -4.486   0.319   1.113  0.00  0.00    +0.013 C 
ATOM     53  C   LIG    1       -5.700  -1.722   0.444  0.00  0.00    +0.013 C 
ATOM     54  C   LIG    1       -4.716  -0.369  -1.291  0.00  0.00    +0.013 C 
ENDBRANCH  41  51
ENDBRANCH   4  41
TORSDOF 14
