REMARK  Name = molecules/XSDQTOBWRPYKKA-UHFFFAOYSA-N.pdb
REMARK                            x       y       z     vdW  Elec       q    Type
REMARK                         _______ _______ _______ _____ _____    ______ ____
ROOT
ATOM      1  C   LIG    1       -0.376   0.038  -0.040  0.00  0.00    +0.183 A 
ATOM      2  C   LIG    1       -1.343   0.173   0.925  0.00  0.00    +0.151 A 
ATOM      3  N   LIG    1       -2.666   0.281   0.607  0.00  0.00    -0.213 NA
ATOM      4  C   LIG    1       -3.033   0.253  -0.701  0.00  0.00    +0.156 A 
ATOM      5  C   LIG    1       -2.064   0.118  -1.672  0.00  0.00    +0.170 A 
ATOM      6 CL   LIG    1       -2.575   0.086  -3.348  0.00  0.00    -0.058 Cl
ATOM      7  N   LIG    1       -0.749   0.011  -1.340  0.00  0.00    -0.222 NA
ENDROOT
BRANCH   1   9
ATOM      8  N   LIG    1        2.064  -0.213  -0.561  0.00  0.00    -0.170 N 
ATOM      9  C   LIG    1        1.012  -0.072   0.368  0.00  0.00    +0.328 C 
ATOM     10  O   LIG    1        1.301  -0.042   1.587  0.00  0.00    -0.250 OA
ATOM     11  H   LIG    1        1.815  -0.238  -1.574  0.00  0.00    +0.255 HD
BRANCH   8  12
ATOM     12  C   LIG    1        3.410  -0.320  -0.162  0.00  0.00    +0.375 C 
ATOM     13  N   LIG    1        3.714  -0.283   1.221  0.00  0.00    -0.291 N 
ATOM     14  H   LIG    1        3.904  -1.163   1.747  0.00  0.00    +0.254 HD
ATOM     15  H   LIG    1        3.753   0.611   1.730  0.00  0.00    +0.254 HD
BRANCH  12  16
ATOM     16  N   LIG    1        4.380  -0.449  -1.014  0.00  0.00    -0.131 NA
ATOM     17  H   LIG    1        4.175  -0.479  -2.046  0.00  0.00    +0.306 HD
ENDBRANCH  12  16
ENDBRANCH   8  12
ENDBRANCH   1   9
BRANCH   2  18
ATOM     18  N   LIG    1       -0.946   0.200   2.286  0.00  0.00    -0.341 N 
ATOM     19  H   LIG    1       -1.102  -0.653   2.859  0.00  0.00    +0.144 HD
ATOM     20  H   LIG    1       -0.510   1.026   2.732  0.00  0.00    +0.144 HD
ENDBRANCH   2  18
BRANCH   4  21
ATOM     21  N   LIG    1       -4.384   0.360  -1.105  0.00  0.00    -0.341 N 
ATOM     22  H   LIG    1       -5.050   1.066  -0.730  0.00  0.00    +0.144 HD
ATOM     23  H   LIG    1       -4.730  -0.310  -1.820  0.00  0.00    +0.144 HD
ENDBRANCH   4  21
TORSDOF 5
