REMARK  Name = molecules/XSFJVAJPIHIPKU-XWCQMRHXSA-N.pdb
REMARK                            x       y       z     vdW  Elec       q    Type
REMARK                         _______ _______ _______ _____ _____    ______ ____
ROOT
ATOM      1  C   LIG    1        2.428  -0.198   0.052  0.00  0.00    +0.164 C 
ATOM      2  O   LIG    1        2.167   1.106   0.495  0.00  0.00    -0.332 OA
ATOM      3  C   LIG    1        2.882   1.919  -0.343  0.00  0.00    +0.166 C 
ATOM      4  C   LIG    1        4.175   2.344   0.340  0.00  0.00    +0.074 C 
ATOM      5  C   LIG    1        2.149   3.216  -0.703  0.00  0.00    +0.074 C 
ATOM      6  O   LIG    1        3.129   1.247  -1.528  0.00  0.00    -0.343 OA
ATOM      7  C   LIG    1        1.100  -0.933   0.139  0.00  0.00    +0.012 C 
ATOM      8  C   LIG    1        0.498  -0.903   1.481  0.00  0.00    +0.042 C 
ATOM      9  C   LIG    1       -1.001  -1.028   1.518  0.00  0.00    +0.120 C 
ATOM     10  C   LIG    1       -1.644  -0.057   0.557  0.00  0.00    +0.035 C 
ATOM     11  C   LIG    1       -3.127   0.004   0.649  0.00  0.00    +0.016 C 
ATOM     12  C   LIG    1       -3.594   0.871   1.724  0.00  0.00    -0.012 C 
ATOM     13  C   LIG    1       -4.452   1.865   1.658  0.00  0.00    +0.047 C 
ATOM     14  C   LIG    1       -5.038   2.191   0.371  0.00  0.00    +0.179 C 
ATOM     15  O   LIG    1       -5.861   3.114   0.226  0.00  0.00    -0.288 OA
ATOM     16  C   LIG    1       -4.589   1.348  -0.760  0.00  0.00    +0.053 C 
ATOM     17  C   LIG    1       -3.671  -1.398   1.060  0.00  0.00    +0.020 C 
ATOM     18  C   LIG    1       -3.744   0.390  -0.631  0.00  0.00    -0.023 C 
ATOM     19  C   LIG    1       -3.256  -0.353  -1.874  0.00  0.00    +0.193 C 
ATOM     20  C   LIG    1       -1.827   0.132  -1.990  0.00  0.00    +0.045 C 
ATOM     21  F   LIG    1       -4.032  -0.103  -2.942  0.00  0.00    -0.241 F 
ATOM     22  C   LIG    1       -1.089  -0.423  -0.804  0.00  0.00    +0.002 C 
ATOM     23  C   LIG    1        1.282  -2.268  -0.501  0.00  0.00    +0.015 C 
ATOM     24  C   LIG    1        0.327   0.029  -0.754  0.00  0.00    +0.004 C 
ATOM     25  C   LIG    1        1.137  -0.011  -1.989  0.00  0.00    +0.039 C 
ATOM     26  C   LIG    1        2.572  -0.025  -1.411  0.00  0.00    +0.162 C 
ENDROOT
BRANCH   1  27
ATOM     27  C   LIG    1        3.458  -0.873   0.801  0.00  0.00    +0.193 C 
ATOM     28  O   LIG    1        3.913  -0.203   1.767  0.00  0.00    -0.292 OA
BRANCH  27  29
ATOM     29  C   LIG    1        4.069  -2.186   0.645  0.00  0.00    +0.233 C 
BRANCH  29  30
ATOM     30  O   LIG    1        5.137  -2.301   1.577  0.00  0.00    -0.387 OA
ATOM     31  H   LIG    1        4.786  -2.615   2.447  0.00  0.00    +0.210 HD
ENDBRANCH  29  30
ENDBRANCH  27  29
ENDBRANCH   1  27
BRANCH   9  32
ATOM     32  O   LIG    1       -1.381  -2.333   1.382  0.00  0.00    -0.391 OA
ATOM     33  H   LIG    1       -1.124  -2.816   0.591  0.00  0.00    +0.210 HD
ENDBRANCH   9  32
TORSDOF 4
