REMARK  Name = molecules/XSPUSVIQHBDITA-RKYNPMAHSA-N.pdb
REMARK                            x       y       z     vdW  Elec       q    Type
REMARK                         _______ _______ _______ _____ _____    ______ ____
ROOT
ATOM      1  CA  LIG    1        1.852  -0.456   0.806  0.00  0.00    +0.124 C 
ATOM      2  N   LIG    1        0.879   0.577   1.055  0.00  0.00    -0.249 N 
ATOM      3  C   LIG    1       -0.354   0.397   1.812  0.00  0.00    +0.169 C 
ATOM      4  CA  LIG    1       -0.919   1.671   1.298  0.00  0.00    +0.191 C 
ATOM      5  S   LIG    1       -1.149  -1.050   1.095  0.00  0.00    -0.131 S 
ATOM      6  C   LIG    1       -0.043  -1.682  -0.121  0.00  0.00    +0.105 C 
ATOM      7  C   LIG    1        0.491   1.911   0.874  0.00  0.00    +0.244 C 
ATOM      8  O   LIG    1        1.042   2.990   0.499  0.00  0.00    -0.273 OA
ATOM      9  C   LIG    1        1.459  -1.607   0.299  0.00  0.00    -0.008 C 
ENDROOT
BRANCH   4  10
ATOM     10  N   LIG    1       -1.767   1.607   0.112  0.00  0.00    -0.296 N 
ATOM     11  C   LIG    1       -2.886   2.448  -0.045  0.00  0.00    +0.268 C 
ATOM     12  O   LIG    1       -3.110   3.264   0.910  0.00  0.00    -0.268 OA
ATOM     13  H   LIG    1       -1.492   0.914  -0.591  0.00  0.00    +0.150 HD
BRANCH  11  14
ATOM     14  C   LIG    1       -3.769   2.457  -1.162  0.00  0.00    +0.190 C 
ATOM     15  N   LIG    1       -4.761   3.312  -1.136  0.00  0.00    -0.078 NA
BRANCH  14  16
ATOM     16  C   LIG    1       -3.662   1.575  -2.357  0.00  0.00    +0.107 A 
ATOM     17  N   LIG    1       -2.722   0.702  -2.485  0.00  0.00    -0.223 NA
ATOM     18  C   LIG    1       -2.647  -0.067  -3.552  0.00  0.00    +0.156 A 
ATOM     19  S   LIG    1       -3.999   0.462  -4.464  0.00  0.00    -0.060 S 
ATOM     20  C   LIG    1       -4.578   1.657  -3.390  0.00  0.00    +0.078 A 
BRANCH  18  21
ATOM     21  N   LIG    1       -1.683  -1.093  -3.876  0.00  0.00    -0.338 N 
ATOM     22  H   LIG    1       -0.772  -1.065  -3.409  0.00  0.00    +0.144 HD
ATOM     23  H   LIG    1       -1.928  -1.829  -4.568  0.00  0.00    +0.144 HD
ENDBRANCH  18  21
ENDBRANCH  14  16
BRANCH  15  24
ATOM     24  O   LIG    1       -4.935   4.159  -0.075  0.00  0.00    -0.396 OA
ATOM     25  C   LIG    1       -4.726   5.564  -0.191  0.00  0.00    +0.313 C 
ENDBRANCH  15  24
ENDBRANCH  11  14
ENDBRANCH   4  10
BRANCH   1  26
ATOM     26  C   LIG    1        3.202  -0.193   1.160  0.00  0.00    +0.351 C 
ATOM     27  O   LIG    1        4.154  -0.942   1.077  0.00  0.00    -0.244 OA
BRANCH  26  28
ATOM     28  OXT LIG    1        3.544   1.083   1.679  0.00  0.00    -0.476 OA
ATOM     29  HXT LIG    1        2.866   1.610   2.215  0.00  0.00    +0.295 HD
ENDBRANCH  26  28
ENDBRANCH   1  26
BRANCH   9  30
ATOM     30  C   LIG    1        2.137  -2.817  -0.019  0.00  0.00    +0.202 C 
BRANCH  30  31
ATOM     31  N   LIG    1        3.456  -3.207   0.110  0.00  0.00    -0.159 N 
ATOM     32  N   LIG    1        3.974  -3.818   1.192  0.00  0.00    -0.136 NA
ATOM     33  C   LIG    1        5.263  -4.122   0.996  0.00  0.00    +0.172 A 
ATOM     34  C   LIG    1        6.189  -4.808   1.965  0.00  0.00    +0.092 C 
ATOM     35  N   LIG    1        5.552  -3.688  -0.242  0.00  0.00    -0.113 NA
ATOM     36  N   LIG    1        4.487  -3.154  -0.751  0.00  0.00    -0.046 NA
ENDBRANCH  30  31
ENDBRANCH   9  30
TORSDOF 9
