REMARK  Name = molecules/XSQUKJJJFZCRTK-UHFFFAOYSA-N.pdb
REMARK                            x       y       z     vdW  Elec       q    Type
REMARK                         _______ _______ _______ _____ _____    ______ ____
ROOT
ATOM      1  C   LIG    1       -0.002   0.514   0.104  0.00  0.00    +0.294 C 
ATOM      2  O   LIG    1       -0.065   1.723   0.353  0.00  0.00    -0.253 OA
ATOM      3  N   LIG    1       -1.205  -0.220  -0.015  0.00  0.00    -0.314 N 
ATOM      4  H   LIG    1       -1.715  -0.457   0.855  0.00  0.00    +0.146 HD
ATOM      5  H   LIG    1       -1.594  -0.529  -0.923  0.00  0.00    +0.146 HD
ATOM      6  N   LIG    1        1.226  -0.173  -0.069  0.00  0.00    -0.314 N 
ATOM      7  H   LIG    1        1.855  -0.398   0.727  0.00  0.00    +0.146 HD
ATOM      8  H   LIG    1        1.499  -0.460  -1.031  0.00  0.00    +0.146 HD
ENDROOT
TORSDOF 0
