REMARK  Name = molecules/XSQUKJJJFZCRTK-NJFSPNSNSA-N.pdb
REMARK                            x       y       z     vdW  Elec       q    Type
REMARK                         _______ _______ _______ _____ _____    ______ ____
ROOT
ATOM      1  N   LIG    1       -1.233   0.004   0.201  0.00  0.00    -0.314 N 
ATOM      2  H   LIG    1       -1.559  -0.471   1.060  0.00  0.00    +0.146 HD
ATOM      3  C   LIG    1        0.103   0.456   0.120  0.00  0.00    +0.294 C 
ATOM      4  O   LIG    1        0.288   1.692   0.340  0.00  0.00    -0.253 OA
ATOM      5  N   LIG    1        1.186  -0.410  -0.187  0.00  0.00    -0.314 N 
ATOM      6  H   LIG    1        0.993  -1.421  -0.249  0.00  0.00    +0.146 HD
ATOM      7  H   LIG    1        2.124   0.018  -0.336  0.00  0.00    +0.146 HD
ATOM      8  H   LIG    1       -1.903   0.132  -0.577  0.00  0.00    +0.146 HD
ENDROOT
TORSDOF 0
