REMARK  Name = molecules/XSQUKJJJFZCRTK-OUBTZVSYSA-N.pdb
REMARK                            x       y       z     vdW  Elec       q    Type
REMARK                         _______ _______ _______ _____ _____    ______ ____
ROOT
ATOM      1  C   LIG    1       -0.082   0.518  -0.078  0.00  0.00    +0.294 C 
ATOM      2  N   LIG    1        1.215  -0.005   0.059  0.00  0.00    -0.314 N 
ATOM      3  H   LIG    1        1.733   0.150   0.930  0.00  0.00    +0.146 HD
ATOM      4  H   LIG    1        1.657  -0.541  -0.695  0.00  0.00    +0.146 HD
ATOM      5  N   LIG    1       -1.171  -0.393   0.011  0.00  0.00    -0.314 N 
ATOM      6  H   LIG    1       -2.011  -0.178   0.571  0.00  0.00    +0.146 HD
ATOM      7  H   LIG    1       -1.061  -1.288  -0.528  0.00  0.00    +0.146 HD
ATOM      8  O   LIG    1       -0.280   1.736  -0.270  0.00  0.00    -0.253 OA
ENDROOT
TORSDOF 0
