REMARK  Name = molecules/XSXCZNVKFKNLPR-VIFPVBQESA-N.pdb
REMARK                            x       y       z     vdW  Elec       q    Type
REMARK                         _______ _______ _______ _____ _____    ______ ____
ROOT
ATOM      1  C   LIG    1       -2.445  -1.668  -0.383  0.00  0.00    +0.163 C 
ATOM      2  C   LIG    1       -3.466  -0.579  -0.081  0.00  0.00    +0.141 C 
ATOM      3  N   LIG    1       -2.779   0.644  -0.414  0.00  0.00    -0.330 N 
ATOM      4  C   LIG    1       -1.374   0.460  -0.152  0.00  0.00    +0.039 C 
ATOM      5  C   LIG    1       -0.395   1.340   0.045  0.00  0.00    +0.076 C 
ATOM      6  C   LIG    1        0.983   0.922   0.298  0.00  0.00    +0.207 C 
ATOM      7  O   LIG    1        1.917   1.722   0.486  0.00  0.00    -0.286 OA
ATOM      8  C   LIG    1        1.225  -0.520   0.324  0.00  0.00    +0.129 C 
ATOM      9  N   LIG    1        2.408  -0.984   0.540  0.00  0.00    -0.175 NA
ATOM     10  C   LIG    1        0.085  -1.400   0.097  0.00  0.00    +0.041 C 
ATOM     11  C   LIG    1       -3.350   1.873  -0.925  0.00  0.00    +0.129 C 
ATOM     12  C   LIG    1       -1.145  -0.981  -0.129  0.00  0.00    +0.006 C 
ENDROOT
BRANCH   9  13
ATOM     13  N   LIG    1        3.519  -0.199   0.760  0.00  0.00    -0.190 N 
ATOM     14  H   LIG    1        3.534   0.437   1.582  0.00  0.00    +0.179 HD
ATOM     15  C   LIG    1        4.634  -0.250  -0.116  0.00  0.00    +0.317 C 
ATOM     16  N   LIG    1        5.773   0.572   0.132  0.00  0.00    -0.312 N 
ATOM     17  H   LIG    1        5.917   0.939   1.098  0.00  0.00    +0.147 HD
ATOM     18  H   LIG    1        6.467   0.828  -0.588  0.00  0.00    +0.147 HD
ATOM     19  O   LIG    1        4.651  -1.010  -1.124  0.00  0.00    -0.251 OA
ENDBRANCH   9  13
BRANCH   1  20
ATOM     20  O   LIG    1       -2.635  -2.742   0.479  0.00  0.00    -0.386 OA
ATOM     21  H   LIG    1       -2.060  -2.622   1.286  0.00  0.00    +0.210 HD
ENDBRANCH   1  20
TORSDOF 2
