REMARK  Name = molecules/XTNGUQKDFGDXSJ-ZXGKGEBGSA-N.pdb
REMARK                            x       y       z     vdW  Elec       q    Type
REMARK                         _______ _______ _______ _____ _____    ______ ____
ROOT
ATOM      1  C   LIG    1       -1.853  -0.540   0.560  0.00  0.00    -0.016 A 
ATOM      2  C   LIG    1       -1.631  -0.511   1.920  0.00  0.00    +0.006 A 
ATOM      3  C   LIG    1       -0.528  -1.106   2.489  0.00  0.00    +0.004 A 
ATOM      4  C   LIG    1        0.421  -1.767   1.729  0.00  0.00    -0.047 A 
ATOM      5  C   LIG    1        1.607  -2.409   2.364  0.00  0.00    +0.044 C 
ATOM      6  C   LIG    1        0.222  -1.810   0.368  0.00  0.00    -0.039 A 
ATOM      7  C   LIG    1       -0.908  -1.198  -0.194  0.00  0.00    +0.010 A 
ENDROOT
BRANCH   1   9
ATOM      8  C   LIG    1       -4.199  -0.831   0.019  0.00  0.00    +0.179 C 
ATOM      9  C   LIG    1       -3.028   0.091  -0.086  0.00  0.00    +0.180 C 
ATOM     10  O   LIG    1       -3.284   1.369   0.424  0.00  0.00    -0.361 OA
ATOM     11  C   LIG    1       -4.271   1.934  -0.381  0.00  0.00    +0.175 C 
ATOM     12  C   LIG    1       -5.580   1.231  -0.073  0.00  0.00    +0.176 C 
ATOM     13  C   LIG    1       -5.491  -0.217  -0.439  0.00  0.00    +0.177 C 
BRANCH   8  14
ATOM     14  O   LIG    1       -3.949  -1.925  -0.828  0.00  0.00    -0.386 OA
ATOM     15  H   LIG    1       -3.619  -2.712  -0.332  0.00  0.00    +0.210 HD
ENDBRANCH   8  14
BRANCH  12  16
ATOM     16  O   LIG    1       -6.640   1.814  -0.768  0.00  0.00    -0.386 OA
ATOM     17  H   LIG    1       -7.486   1.511  -0.327  0.00  0.00    +0.210 HD
ENDBRANCH  12  16
BRANCH  13  18
ATOM     18  O   LIG    1       -6.529  -0.943   0.175  0.00  0.00    -0.386 OA
ATOM     19  H   LIG    1       -6.187  -1.403   0.988  0.00  0.00    +0.210 HD
ENDBRANCH  13  18
BRANCH  11  20
ATOM     20  C   LIG    1       -4.398   3.425  -0.173  0.00  0.00    +0.190 C 
BRANCH  20  21
ATOM     21  O   LIG    1       -5.415   3.862  -1.038  0.00  0.00    -0.392 OA
ATOM     22  H   LIG    1       -5.283   3.355  -1.888  0.00  0.00    +0.210 HD
ENDBRANCH  20  21
ENDBRANCH  11  20
ENDBRANCH   1   9
BRANCH   6  23
ATOM     23  C   LIG    1        1.173  -2.484  -0.537  0.00  0.00    +0.077 C 
BRANCH  23  24
ATOM     24  C   LIG    1        2.368  -1.583  -0.719  0.00  0.00    -0.005 A 
ATOM     25  S   LIG    1        3.853  -1.478   0.112  0.00  0.00    -0.093 S 
ATOM     26  C   LIG    1        4.569  -0.208  -0.762  0.00  0.00    +0.020 A 
ATOM     27  C   LIG    1        3.617   0.105  -1.693  0.00  0.00    +0.016 A 
ATOM     28  C   LIG    1        2.482  -0.604  -1.671  0.00  0.00    +0.012 A 
BRANCH  26  29
ATOM     29  C   LIG    1        5.901   0.408  -0.568  0.00  0.00    -0.011 A 
ATOM     30  C   LIG    1        6.724  -0.064   0.427  0.00  0.00    +0.012 A 
ATOM     31  C   LIG    1        7.975   0.460   0.661  0.00  0.00    +0.039 A 
ATOM     32  C   LIG    1        8.388   1.506  -0.161  0.00  0.00    +0.123 A 
ATOM     33  F   LIG    1        9.600   2.066   0.012  0.00  0.00    -0.205 F 
ATOM     34  C   LIG    1        7.557   1.968  -1.150  0.00  0.00    +0.039 A 
ATOM     35  C   LIG    1        6.302   1.429  -1.371  0.00  0.00    +0.012 A 
ENDBRANCH  26  29
ENDBRANCH  23  24
ENDBRANCH   6  23
TORSDOF 9
