REMARK  Name = molecules/XUFQPHANEAPEMJ-UHFFFAOYSA-N.pdb
REMARK                            x       y       z     vdW  Elec       q    Type
REMARK                         _______ _______ _______ _____ _____    ______ ____
ROOT
ATOM      1  C   LIG    1       -0.995   0.255  -0.566  0.00  0.00    +0.125 C 
ENDROOT
BRANCH   1   4
ATOM      2  C   LIG    1       -4.637   0.724  -0.622  0.00  0.00    +0.233 A 
ATOM      3  N   LIG    1       -3.454   0.197  -0.399  0.00  0.00    -0.213 NA
ATOM      4  C   LIG    1       -2.379   0.819  -0.799  0.00  0.00    +0.062 A 
ATOM      5  C   LIG    1       -2.543   2.015  -1.445  0.00  0.00    +0.074 A 
ATOM      6  S   LIG    1       -4.255   2.169  -1.433  0.00  0.00    -0.041 S 
BRANCH   2   7
ATOM      7  N   LIG    1       -5.939   0.229  -0.279  0.00  0.00    -0.222 N 
ATOM      8  H   LIG    1       -6.800   0.774  -0.528  0.00  0.00    +0.267 HD
BRANCH   7   9
ATOM      9  C   LIG    1       -6.131  -0.993   0.395  0.00  0.00    +0.383 C 
ATOM     10  N   LIG    1       -6.179  -1.045   1.806  0.00  0.00    -0.289 N 
ATOM     11  H   LIG    1       -5.524  -0.469   2.370  0.00  0.00    +0.255 HD
ATOM     12  H   LIG    1       -6.845  -1.641   2.351  0.00  0.00    +0.255 HD
BRANCH   9  13
ATOM     13  N   LIG    1       -6.268  -2.093  -0.259  0.00  0.00    -0.129 NA
ATOM     14  H   LIG    1       -6.245  -2.138  -1.286  0.00  0.00    +0.306 HD
ENDBRANCH   9  13
ENDBRANCH   7   9
ENDBRANCH   2   7
ENDBRANCH   1   4
BRANCH   1  15
ATOM     15  S   LIG    1       -0.326   0.836   1.006  0.00  0.00    -0.154 S 
BRANCH  15  16
ATOM     16  C   LIG    1        1.327   0.119   1.209  0.00  0.00    +0.081 C 
BRANCH  16  17
ATOM     17  C   LIG    1        2.288   0.656   0.170  0.00  0.00    +0.140 C 
BRANCH  17  18
ATOM     18  C   LIG    1        3.644   0.076   0.334  0.00  0.00    +0.303 C 
ATOM     19  N   LIG    1        3.899  -0.760   1.280  0.00  0.00    -0.102 NA
ATOM     20  H   LIG    1        3.186  -1.074   1.973  0.00  0.00    +0.363 HD
BRANCH  18  21
ATOM     21  N   LIG    1        4.698   0.428  -0.548  0.00  0.00    -0.085 N 
ATOM     22  H   LIG    1        4.651   1.343  -1.028  0.00  0.00    +0.327 HD
BRANCH  21  23
ATOM     23  S   LIG    1        5.990  -0.669  -0.777  0.00  0.00    +0.168 S 
ATOM     24  O   LIG    1        5.515  -2.095  -0.552  0.00  0.00    -0.118 OA
ATOM     25  O   LIG    1        6.474  -0.569  -2.188  0.00  0.00    -0.118 OA
BRANCH  23  26
ATOM     26  N   LIG    1        7.233  -0.319   0.372  0.00  0.00    -0.173 NA
ATOM     27  H   LIG    1        7.361   0.726   0.406  0.00  0.00    +0.147 HD
ATOM     28  H   LIG    1        8.129  -0.781   0.054  0.00  0.00    +0.147 HD
ENDBRANCH  23  26
ENDBRANCH  21  23
ENDBRANCH  18  21
ENDBRANCH  17  18
ENDBRANCH  16  17
ENDBRANCH  15  16
ENDBRANCH   1  15
TORSDOF 11
