REMARK  Name = molecules/XUHXFSYUBXNTHU-RMCLQANOSA-N.pdb
REMARK                            x       y       z     vdW  Elec       q    Type
REMARK                         _______ _______ _______ _____ _____    ______ ____
ROOT
ATOM      1  C   UNK A  0       -0.779   0.342   0.505  0.00  0.00    +0.192 C 
ENDROOT
BRANCH   1   4
ATOM      2  N   UNK A  0        1.720  -0.050   0.929  0.00  0.00    -0.272 N 
ATOM      3  C   UNK A  0        1.543  -0.767   2.157  0.00  0.00    +0.138 C 
ATOM      4  C   UNK A  0        0.655   0.513   0.196  0.00  0.00    +0.228 C 
ATOM      5  O   UNK A  0        0.905   1.240  -0.831  0.00  0.00    -0.275 OA
BRANCH   2   6
ATOM      6  C   UNK A  0        3.058   0.127   0.421  0.00  0.00    +0.064 A 
ATOM      7  C   UNK A  0        3.632   1.363   0.370  0.00  0.00    +0.049 A 
ATOM      8  I   UNK A  0        2.605   3.089   1.022  0.00  0.00    -0.041 I 
ATOM      9  C   UNK A  0        4.946   1.566  -0.119  0.00  0.00    +0.065 A 
ATOM     10  C   UNK A  0        5.605   0.431  -0.542  0.00  0.00    +0.040 A 
ATOM     11  C   UNK A  0        5.090  -0.832  -0.514  0.00  0.00    +0.065 A 
ATOM     12  I   UNK A  0        7.462   0.692  -1.509  0.00  0.00    -0.042 I 
ATOM     13  C   UNK A  0        3.781  -0.963  -0.017  0.00  0.00    +0.049 A 
ATOM     14  I   UNK A  0        2.920  -2.886   0.037  0.00  0.00    -0.041 I 
BRANCH   9  15
ATOM     15  C   UNK A  0        5.443   2.924  -0.170  0.00  0.00    +0.247 C 
ATOM     16  N   UNK A  1        6.787   3.270   0.092  0.00  0.00    -0.304 N 
ATOM     17  H   UNK A  1        7.452   2.529   0.367  0.00  0.00    +0.149 HD
ATOM     18  O   UNK A  0        4.648   3.884  -0.454  0.00  0.00    -0.270 OA
BRANCH  16  19
ATOM     19  C   UNK A  1        7.223   4.659   0.014  0.00  0.00    +0.129 C 
BRANCH  19  20
ATOM     20  C   UNK A  1        7.310   5.263   1.412  0.00  0.00    +0.180 C 
BRANCH  20  21
ATOM     21  O   UNK A  1        8.184   4.581   2.244  0.00  0.00    -0.393 OA
ATOM     22  H   UNK A  1        8.007   4.809   3.192  0.00  0.00    +0.209 HD
ENDBRANCH  20  21
ENDBRANCH  19  20
BRANCH  19  23
ATOM     23  C   UNK A  1        8.537   4.788  -0.655  0.00  0.00    +0.162 C 
BRANCH  23  24
ATOM     24  O   UNK A  1        8.409   4.188  -1.930  0.00  0.00    -0.388 OA
ATOM     25  H   UNK A  1        9.120   3.531  -2.082  0.00  0.00    +0.210 HD
ENDBRANCH  23  24
BRANCH  23  26
ATOM     26  C   UNK A  1        9.709   4.203   0.040  0.00  0.00    +0.189 C 
BRANCH  26  27
ATOM     27  O   UNK A  1        9.681   2.863   0.281  0.00  0.00    -0.392 OA
ATOM     28  H   UNK A  1       10.449   2.354  -0.042  0.00  0.00    +0.210 HD
ENDBRANCH  26  27
ENDBRANCH  23  26
ENDBRANCH  19  23
ENDBRANCH  16  19
ENDBRANCH   9  15
BRANCH  11  29
ATOM     29  C   UNK A  0        5.740  -2.065  -0.978  0.00  0.00    +0.247 C 
ATOM     30  N   UNK A  1        7.098  -2.263  -0.802  0.00  0.00    -0.304 N 
ATOM     31  H   UNK A  1        7.612  -1.504  -0.230  0.00  0.00    +0.149 HD
ATOM     32  O   UNK A  0        5.014  -2.948  -1.539  0.00  0.00    -0.270 OA
BRANCH  30  33
ATOM     33  C   UNK A  1        7.980  -3.329  -1.181  0.00  0.00    +0.129 C 
BRANCH  33  34
ATOM     34  C   UNK A  1        9.062  -3.634  -0.194  0.00  0.00    +0.180 C 
BRANCH  34  35
ATOM     35  O   UNK A  1        9.828  -2.450  -0.049  0.00  0.00    -0.393 OA
ATOM     36  H   UNK A  1        9.393  -1.962   0.695  0.00  0.00    +0.209 HD
ENDBRANCH  34  35
ENDBRANCH  33  34
BRANCH  33  37
ATOM     37  C   UNK A  1        7.293  -4.569  -1.729  0.00  0.00    +0.162 C 
BRANCH  37  38
ATOM     38  O   UNK A  1        8.281  -5.611  -1.807  0.00  0.00    -0.388 OA
ATOM     39  H   UNK A  1        8.179  -6.077  -0.921  0.00  0.00    +0.210 HD
ENDBRANCH  37  38
BRANCH  37  40
ATOM     40  C   UNK A  1        6.969  -4.352  -3.235  0.00  0.00    +0.189 C 
BRANCH  40  41
ATOM     41  O   UNK A  1        6.426  -5.475  -3.808  0.00  0.00    -0.392 OA
ATOM     42  H   UNK A  1        7.123  -6.082  -4.123  0.00  0.00    +0.210 HD
ENDBRANCH  40  41
ENDBRANCH  37  40
ENDBRANCH  33  37
ENDBRANCH  30  33
ENDBRANCH  11  29
ENDBRANCH   2   6
ENDBRANCH   1   4
BRANCH   1  43
ATOM     43  C   UNK A  0       -1.241   1.069   1.703  0.00  0.00    +0.228 C 
ATOM     44  O   UNK A  0       -0.411   1.688   2.398  0.00  0.00    -0.275 OA
ATOM     45  N   UNK A  0       -2.591   1.066   2.058  0.00  0.00    -0.272 N 
ATOM     46  C   UNK A  0       -2.987   1.751   3.299  0.00  0.00    +0.138 C 
BRANCH  45  47
ATOM     47  C   UNK A  0       -3.652   0.455   1.333  0.00  0.00    +0.064 A 
ATOM     48  C   UNK A  0       -4.039  -0.840   1.512  0.00  0.00    +0.049 A 
ATOM     49  I   UNK A  0       -3.017  -1.991   2.932  0.00  0.00    -0.041 I 
ATOM     50  C   UNK A  0       -5.094  -1.447   0.807  0.00  0.00    +0.065 A 
ATOM     51  C   UNK A  0       -5.731  -0.643  -0.097  0.00  0.00    +0.040 A 
ATOM     52  C   UNK A  0       -5.383   0.712  -0.333  0.00  0.00    +0.065 A 
ATOM     53  I   UNK A  0       -7.306  -1.405  -1.305  0.00  0.00    -0.042 I 
ATOM     54  C   UNK A  0       -4.354   1.210   0.390  0.00  0.00    +0.049 A 
ATOM     55  I   UNK A  0       -3.654   3.169   0.073  0.00  0.00    -0.041 I 
BRANCH  52  56
ATOM     56  C   UNK A  0       -6.203   1.469  -1.271  0.00  0.00    +0.247 C 
ATOM     57  N   UNK A  1       -6.446   2.847  -1.220  0.00  0.00    -0.304 N 
ATOM     58  H   UNK A  1       -6.104   3.487  -0.492  0.00  0.00    +0.149 HD
ATOM     59  O   UNK A  0       -6.771   0.813  -2.244  0.00  0.00    -0.270 OA
BRANCH  57  60
ATOM     60  C   UNK A  1       -7.292   3.518  -2.233  0.00  0.00    +0.129 C 
BRANCH  60  61
ATOM     61  C   UNK A  1       -6.452   4.634  -2.810  0.00  0.00    +0.180 C 
BRANCH  61  62
ATOM     62  O   UNK A  1       -6.069   5.548  -1.854  0.00  0.00    -0.393 OA
ATOM     63  H   UNK A  1       -6.449   6.444  -2.051  0.00  0.00    +0.209 HD
ENDBRANCH  61  62
ENDBRANCH  60  61
BRANCH  60  64
ATOM     64  C   UNK A  1       -8.547   4.048  -1.569  0.00  0.00    +0.162 C 
BRANCH  64  65
ATOM     65  O   UNK A  1       -8.316   4.958  -0.569  0.00  0.00    -0.388 OA
ATOM     66  H   UNK A  1       -8.164   4.523   0.325  0.00  0.00    +0.210 HD
ENDBRANCH  64  65
BRANCH  64  67
ATOM     67  C   UNK A  1       -9.566   4.559  -2.543  0.00  0.00    +0.189 C 
BRANCH  67  68
ATOM     68  O   UNK A  1       -9.156   5.739  -3.128  0.00  0.00    -0.392 OA
ATOM     69  H   UNK A  1       -9.255   6.473  -2.453  0.00  0.00    +0.210 HD
ENDBRANCH  67  68
ENDBRANCH  64  67
ENDBRANCH  60  64
ENDBRANCH  57  60
ENDBRANCH  52  56
BRANCH  50  70
ATOM     70  C   UNK A  0       -5.377  -2.825   1.071  0.00  0.00    +0.247 C 
ATOM     71  O   UNK A  0       -4.369  -3.499   1.551  0.00  0.00    -0.270 OA
ATOM     72  N   UNK A  1       -6.530  -3.587   0.917  0.00  0.00    -0.304 N 
ATOM     73  H   UNK A  1       -7.416  -3.196   0.575  0.00  0.00    +0.149 HD
BRANCH  72  74
ATOM     74  C   UNK A  1       -6.584  -5.014   1.263  0.00  0.00    +0.129 C 
BRANCH  74  75
ATOM     75  C   UNK A  1       -7.001  -5.836   0.111  0.00  0.00    +0.162 C 
BRANCH  75  76
ATOM     76  O   UNK A  1       -7.039  -7.202   0.512  0.00  0.00    -0.388 OA
ATOM     77  H   UNK A  1       -6.995  -7.780  -0.308  0.00  0.00    +0.210 HD
ENDBRANCH  75  76
BRANCH  75  78
ATOM     78  C   UNK A  1       -8.306  -5.512  -0.504  0.00  0.00    +0.189 C 
BRANCH  78  79
ATOM     79  O   UNK A  1       -9.420  -5.707   0.275  0.00  0.00    -0.392 OA
ATOM     80  H   UNK A  1      -10.224  -5.981  -0.233  0.00  0.00    +0.210 HD
ENDBRANCH  78  79
ENDBRANCH  75  78
ENDBRANCH  74  75
BRANCH  74  81
ATOM     81  C   UNK A  1       -7.374  -5.282   2.495  0.00  0.00    +0.180 C 
BRANCH  81  82
ATOM     82  O   UNK A  1       -8.668  -4.866   2.491  0.00  0.00    -0.393 OA
ATOM     83  H   UNK A  1       -9.002  -4.793   3.424  0.00  0.00    +0.209 HD
ENDBRANCH  81  82
ENDBRANCH  74  81
ENDBRANCH  72  74
ENDBRANCH  50  70
ENDBRANCH  45  47
ENDBRANCH   1  43
TORSDOF 36
