REMARK  Name = molecules/XUJNEKJLAYXESH-REOHCLBHSA-N.pdb
REMARK                            x       y       z     vdW  Elec       q    Type
REMARK                         _______ _______ _______ _____ _____    ______ ____
ROOT
ATOM      1  CA  CYS A  1        0.158  -0.259  -0.006  0.00  0.00    +0.170 C 
ENDROOT
BRANCH   1   2
ATOM      2  N   CYS A  1       -0.267  -1.307   0.865  0.00  0.00    -0.318 NA
ATOM      3  H1  CYS A  1       -0.785  -1.012   1.695  0.00  0.00    +0.119 HD
ATOM      4  H2  CYS A  1        0.444  -2.026   0.995  0.00  0.00    +0.119 HD
ENDBRANCH   1   2
BRANCH   1   5
ATOM      5  C   CYS A  1        1.327   0.492   0.502  0.00  0.00    +0.323 C 
ATOM      6  OXT CYS A  1        1.902   0.247   1.587  0.00  0.00    -0.249 OA
BRANCH   5   7
ATOM      7  O   CYS A  1        1.799   1.535  -0.303  0.00  0.00    -0.480 OA
ATOM      8  H   CYS A  1        2.256   1.354  -1.203  0.00  0.00    +0.295 HD
ENDBRANCH   5   7
ENDBRANCH   1   5
BRANCH   1   9
ATOM      9  CB  CYS A  1       -1.013   0.692  -0.263  0.00  0.00    +0.095 C 
BRANCH   9  10
ATOM     10  SG  CYS A  1       -2.367  -0.234  -1.031  0.00  0.00    -0.176 S 
ATOM     11  HG  CYS A  1       -1.836  -1.401  -1.591  0.00  0.00    +0.102 HD
ENDBRANCH   9  10
ENDBRANCH   1   9
TORSDOF 5
