REMARK  Name = molecules/XULACPAEUUWKFX-UHFFFAOYSA-N.pdb
REMARK                            x       y       z     vdW  Elec       q    Type
REMARK                         _______ _______ _______ _____ _____    ______ ____
ROOT
ATOM      1  C   LIG    1       -1.550  -0.158  -0.599  0.00  0.00    +0.155 A 
ATOM      2  C   LIG    1       -0.767  -0.299   0.526  0.00  0.00    +0.031 A 
ATOM      3  C   LIG    1       -1.343  -0.336   1.775  0.00  0.00    +0.032 A 
ATOM      4  C   LIG    1       -2.715  -0.229   1.869  0.00  0.00    +0.044 A 
ATOM      5 CL   LIG    1       -3.508  -0.270   3.432  0.00  0.00    -0.083 Cl
ATOM      6  C   LIG    1       -3.498  -0.088   0.745  0.00  0.00    +0.056 A 
ATOM      7  C   LIG    1       -2.930  -0.050  -0.517  0.00  0.00    +0.169 A 
ENDROOT
BRANCH   2   8
ATOM      8  C   LIG    1        0.683  -0.413   0.439  0.00  0.00    +0.031 A 
ATOM      9  C   LIG    1        1.326  -1.594   0.687  0.00  0.00    +0.032 A 
ATOM     10  C   LIG    1        2.691  -1.639   0.582  0.00  0.00    +0.044 A 
ATOM     11 CL   LIG    1        3.502  -3.179   0.908  0.00  0.00    -0.083 Cl
ATOM     12  C   LIG    1        3.417  -0.550   0.241  0.00  0.00    +0.056 A 
ATOM     13  C   LIG    1        2.780   0.671  -0.017  0.00  0.00    +0.169 A 
ATOM     14  C   LIG    1        1.414   0.708   0.090  0.00  0.00    +0.155 A 
BRANCH  13  15
ATOM     15  N   LIG    1        3.595   1.786  -0.376  0.00  0.00    +0.060 N 
ATOM     16  O   LIG    1        3.278   2.931  -0.043  0.00  0.00    -0.126 OA
ATOM     17  O   LIG    1        4.748   1.589  -1.084  0.00  0.00    -0.126 OA
ENDBRANCH  13  15
BRANCH  14  18
ATOM     18  O   LIG    1        0.719   1.873  -0.150  0.00  0.00    -0.504 OA
ATOM     19  H   LIG    1        1.057   2.755  -0.410  0.00  0.00    +0.292 HD
ENDBRANCH  14  18
ENDBRANCH   2   8
BRANCH   7  20
ATOM     20  N   LIG    1       -3.756   0.093  -1.665  0.00  0.00    +0.060 N 
ATOM     21  O   LIG    1       -4.859   0.662  -1.601  0.00  0.00    -0.126 OA
ATOM     22  O   LIG    1       -3.289  -0.426  -2.845  0.00  0.00    -0.126 OA
ENDBRANCH   7  20
BRANCH   1  23
ATOM     23  O   LIG    1       -0.955  -0.123  -1.847  0.00  0.00    -0.504 OA
ATOM     24  H   LIG    1        0.060  -0.200  -1.936  0.00  0.00    +0.292 HD
ENDBRANCH   1  23
TORSDOF 5
