REMARK  Name = molecules/XULIXFLCVXWHRF-UHFFFAOYSA-N.pdb
REMARK                            x       y       z     vdW  Elec       q    Type
REMARK                         _______ _______ _______ _____ _____    ______ ____
ROOT
ATOM      1  C   LIG    1       -0.123  -1.951  -0.323  0.00  0.00    +0.106 C 
ATOM      2  N   LIG    1       -0.080  -0.536  -0.418  0.00  0.00    -0.295 NA
ATOM      3  C   LIG    1       -1.209   0.105   0.134  0.00  0.00    +0.017 C 
ATOM      4  C   LIG    1       -1.701  -0.540   1.433  0.00  0.00    +0.027 C 
ATOM      5  C   LIG    1       -1.072   1.576   0.341  0.00  0.00    +0.022 C 
ATOM      6  C   LIG    1        0.021   2.054  -0.625  0.00  0.00    +0.004 C 
ATOM      7  C   LIG    1        1.309   1.462  -0.042  0.00  0.00    +0.022 C 
ATOM      8  C   LIG    1       -2.372  -0.097  -0.853  0.00  0.00    +0.027 C 
ATOM      9  C   LIG    1        1.192  -0.021  -0.127  0.00  0.00    +0.017 C 
ATOM     10  C   LIG    1        1.800  -0.587   1.163  0.00  0.00    +0.027 C 
ATOM     11  C   LIG    1        2.157  -0.482  -1.233  0.00  0.00    +0.027 C 
ENDROOT
TORSDOF 0
