REMARK  Name = molecules/XUYANFPPYJSBPU-QMMMGPOBSA-N.pdb
REMARK                            x       y       z     vdW  Elec       q    Type
REMARK                         _______ _______ _______ _____ _____    ______ ____
ROOT
ATOM      1  CA  LIG    1       -1.303  -0.467  -0.281  0.00  0.00    +0.182 C 
ENDROOT
BRANCH   1   2
ATOM      2  N   LIG    1       -2.254   0.625  -0.222  0.00  0.00    -0.303 N 
ATOM      3  H   LIG    1       -3.012   0.591   0.493  0.00  0.00    +0.149 HD
ATOM      4  C   LIG    1       -2.190   1.731  -1.097  0.00  0.00    +0.211 C 
ATOM      5  C   LIG    1       -3.168   2.839  -1.025  0.00  0.00    +0.109 C 
ATOM      6  O   LIG    1       -1.276   1.773  -1.959  0.00  0.00    -0.276 OA
ENDBRANCH   1   2
BRANCH   1   7
ATOM      7  C   LIG    1       -2.058  -1.702  -0.587  0.00  0.00    +0.325 C 
ATOM      8  O   LIG    1       -3.296  -1.695  -0.744  0.00  0.00    -0.249 OA
BRANCH   7   9
ATOM      9  OXT LIG    1       -1.380  -2.930  -0.710  0.00  0.00    -0.479 OA
ATOM     10  HXT LIG    1       -1.675  -3.748  -0.190  0.00  0.00    +0.295 HD
ENDBRANCH   7   9
ENDBRANCH   1   7
BRANCH   1  11
ATOM     11  C   LIG    1       -0.617  -0.504   1.059  0.00  0.00    +0.035 C 
BRANCH  11  12
ATOM     12  C   LIG    1        0.410  -1.571   1.199  0.00  0.00    +0.021 C 
BRANCH  12  13
ATOM     13  C   LIG    1        1.536  -1.471   0.208  0.00  0.00    +0.104 C 
BRANCH  13  14
ATOM     14  N   LIG    1        2.259  -0.227   0.315  0.00  0.00    -0.316 N 
ATOM     15  H   LIG    1        2.023   0.517   1.005  0.00  0.00    +0.149 HD
ATOM     16  C   LIG    1        3.355   0.017  -0.557  0.00  0.00    +0.210 C 
ATOM     17  C   LIG    1        4.145   1.273  -0.504  0.00  0.00    +0.109 C 
ATOM     18  O   LIG    1        3.696  -0.833  -1.412  0.00  0.00    -0.276 OA
ENDBRANCH  13  14
ENDBRANCH  12  13
ENDBRANCH  11  12
ENDBRANCH   1  11
TORSDOF 7
