REMARK  Name = molecules/XUZMWHLSFXCVMG-UHFFFAOYSA-N.pdb
REMARK                            x       y       z     vdW  Elec       q    Type
REMARK                         _______ _______ _______ _____ _____    ______ ____
ROOT
ATOM      1  C   LIG    1       -2.007  -0.861   1.211  0.00  0.00    +0.039 A 
ATOM      2  C   LIG    1       -1.270  -2.001   1.546  0.00  0.00    +0.144 A 
ATOM      3  N   LIG    1       -0.088  -1.938   0.937  0.00  0.00    -0.178 NA
ATOM      4  N   LIG    1       -0.026  -0.803   0.219  0.00  0.00    -0.261 N 
ATOM      5  C   LIG    1       -1.186  -0.139   0.376  0.00  0.00    +0.119 A 
ENDROOT
BRANCH   1   8
ATOM      6  C   LIG    1       -4.972  -0.471   3.403  0.00  0.00    +0.224 A 
ATOM      7  N   LIG    1       -3.724  -0.736   2.972  0.00  0.00    -0.235 NA
ATOM      8  C   LIG    1       -3.350  -0.579   1.688  0.00  0.00    +0.086 A 
ATOM      9  C   LIG    1       -4.292  -0.128   0.785  0.00  0.00    +0.045 A 
ATOM     10  C   LIG    1       -5.580   0.141   1.251  0.00  0.00    +0.142 A 
ATOM     11  N   LIG    1       -6.325   0.562   0.221  0.00  0.00    -0.346 N 
ATOM     12  H   LIG    1       -7.337   0.836   0.285  0.00  0.00    +0.167 HD
ATOM     13  C   LIG    1       -5.575   0.579  -0.897  0.00  0.00    +0.085 A 
ATOM     14  C   LIG    1       -4.311   0.154  -0.564  0.00  0.00    +0.031 A 
ATOM     15  N   LIG    1       -5.912  -0.030   2.547  0.00  0.00    -0.218 NA
ENDBRANCH   1   8
BRANCH   4  16
ATOM     16  C   LIG    1        1.138  -0.476  -0.542  0.00  0.00    +0.105 C 
ATOM     17  C   LIG    1        2.373  -0.530   0.391  0.00  0.00    +0.141 C 
ATOM     18  N   LIG    1        2.297   0.859   0.599  0.00  0.00    -0.176 NA
ATOM     19  C   LIG    1        1.524   0.979  -0.629  0.00  0.00    +0.141 C 
BRANCH  18  20
ATOM     20  S   LIG    1        3.662   1.812   0.783  0.00  0.00    +0.032 S 
ATOM     21  O   LIG    1        4.265   1.484   2.155  0.00  0.00    -0.158 OA
ATOM     22  O   LIG    1        3.312   3.294   0.904  0.00  0.00    -0.158 OA
BRANCH  20  23
ATOM     23  C   LIG    1        4.960   1.583  -0.380  0.00  0.00    +0.182 C 
ATOM     24  C   LIG    1        5.531   0.192  -0.344  0.00  0.00    +0.029 C 
ENDBRANCH  20  23
ENDBRANCH  18  20
BRANCH  16  25
ATOM     25  C   LIG    1        1.279  -1.296  -1.777  0.00  0.00    +0.151 C 
BRANCH  25  26
ATOM     26  C   LIG    1        2.437  -1.006  -2.585  0.00  0.00    +0.065 C 
ATOM     27  N   LIG    1        3.340  -0.777  -3.242  0.00  0.00    -0.196 NA
ENDBRANCH  25  26
ENDBRANCH  16  25
ENDBRANCH   4  16
TORSDOF 6
