REMARK  Name = molecules/XVQUOJBERHHONY-SECBINFHSA-N.pdb
REMARK                            x       y       z     vdW  Elec       q    Type
REMARK                         _______ _______ _______ _____ _____    ______ ____
ROOT
ATOM      1  C   LIG    1       -0.774  -0.278   0.038  0.00  0.00    +0.022 C 
ENDROOT
BRANCH   1   2
ATOM      2  C   LIG    1       -1.956   0.659  -0.041  0.00  0.00    +0.051 C 
ATOM      3  C   LIG    1       -1.557   1.884  -0.857  0.00  0.00    +0.024 C 
BRANCH   2   5
ATOM      4  C   LIG    1       -3.639  -1.083  -0.044  0.00  0.00    +0.101 C 
ATOM      5  N   LIG    1       -3.013  -0.008  -0.735  0.00  0.00    -0.316 NA
ATOM      6  H   LIG    1       -3.655   0.616  -1.256  0.00  0.00    +0.122 HD
ENDBRANCH   2   5
ENDBRANCH   1   2
BRANCH   1   7
ATOM      7  C   LIG    1        0.401   0.348   0.761  0.00  0.00    +0.028 C 
BRANCH   7   8
ATOM      8  C   LIG    1        1.486  -0.690   0.759  0.00  0.00    -0.028 C 
ATOM      9  C   LIG    1        2.659  -0.496   0.207  0.00  0.00    -0.080 C 
ATOM     10  C   LIG    1        3.684  -1.550   0.238  0.00  0.00    +0.038 C 
ATOM     11  C   LIG    1        2.953   0.792  -0.450  0.00  0.00    +0.038 C 
ENDBRANCH   7   8
ENDBRANCH   1   7
TORSDOF 4
