REMARK  Name = molecules/XVUQHFRQHBLHQD-UHFFFAOYSA-N.pdb
REMARK                            x       y       z     vdW  Elec       q    Type
REMARK                         _______ _______ _______ _____ _____    ______ ____
ROOT
ATOM      1  C   LIG    1       -0.557  -1.087  -0.559  0.00  0.00    +0.009 A 
ATOM      2  C   LIG    1       -0.633   0.261  -0.339  0.00  0.00    +0.097 A 
ATOM      3  N   LIG    1        0.619   0.715  -0.160  0.00  0.00    -0.166 NA
ATOM      4  N   LIG    1        1.484  -0.308  -0.261  0.00  0.00    -0.239 N 
ATOM      5  C   LIG    1        0.799  -1.439  -0.507  0.00  0.00    +0.119 A 
ENDROOT
BRANCH   2   6
ATOM      6  C   LIG    1       -1.825   1.092  -0.270  0.00  0.00    +0.002 A 
ATOM      7  C   LIG    1       -2.036   1.938   0.822  0.00  0.00    +0.011 A 
ATOM      8  C   LIG    1       -3.154   2.725   0.856  0.00  0.00    +0.020 A 
ATOM      9  C   LIG    1       -4.088   2.704  -0.175  0.00  0.00    +0.041 A 
ATOM     10 CL   LIG    1       -5.497   3.713  -0.104  0.00  0.00    -0.084 Cl
ATOM     11  C   LIG    1       -3.872   1.868  -1.247  0.00  0.00    +0.020 A 
ATOM     12  C   LIG    1       -2.747   1.070  -1.291  0.00  0.00    +0.011 A 
ENDBRANCH   2   6
BRANCH   4  13
ATOM     13  C   LIG    1        2.891  -0.198  -0.127  0.00  0.00    +0.065 A 
ATOM     14  C   LIG    1        3.503  -0.459   1.067  0.00  0.00    +0.028 A 
ATOM     15  C   LIG    1        4.886  -0.363   1.231  0.00  0.00    +0.002 A 
ATOM     16  C   LIG    1        5.612   0.011   0.115  0.00  0.00    +0.000 A 
ATOM     17  C   LIG    1        5.032   0.281  -1.103  0.00  0.00    +0.002 A 
ATOM     18  C   LIG    1        3.643   0.172  -1.216  0.00  0.00    +0.028 A 
ENDBRANCH   4  13
BRANCH   1  19
ATOM     19  C   LIG    1       -1.628  -2.090  -0.794  0.00  0.00    +0.159 C 
BRANCH  19  20
ATOM     20  C   LIG    1       -2.339  -2.438   0.458  0.00  0.00    +0.309 C 
ATOM     21  O   LIG    1       -1.992  -1.896   1.527  0.00  0.00    -0.251 OA
BRANCH  20  22
ATOM     22  O   LIG    1       -3.367  -3.355   0.404  0.00  0.00    -0.480 OA
ATOM     23  H   LIG    1       -4.293  -3.027   0.160  0.00  0.00    +0.295 HD
ENDBRANCH  20  22
ENDBRANCH  19  20
ENDBRANCH   1  19
TORSDOF 5
