REMARK  Name = molecules/XVVOERDUTLJJHN-IAEQDCLQSA-N.pdb
REMARK                            x       y       z     vdW  Elec       q    Type
REMARK                         _______ _______ _______ _____ _____    ______ ____
ROOT
ATOM      1  N   LIG    1       68.332  27.497   0.000  0.00  0.00    -0.130 NA
ATOM      2  C   LIG    1       69.758  27.033   0.000  0.00  0.00    +0.186 C 
ENDROOT
BRANCH   2   3
ATOM      3  C   LIG    1       70.222  28.459   0.000  0.00  0.00    +0.256 C 
ATOM      4  O   LIG    1       69.218  29.574   0.000  0.00  0.00    -0.272 OA
BRANCH   3   5
ATOM      5  N   LIG    1       71.689  28.771   0.000  0.00  0.00    -0.195 NA
ATOM      6  C   LIG    1       72.153  30.198   0.000  0.00  0.00    +0.127 C 
ENDBRANCH   3   5
ENDBRANCH   2   3
BRANCH   2   7
ATOM      7  C   LIG    1       69.295  25.606   0.000  0.00  0.00    +0.088 C 
BRANCH   7   8
ATOM      8  C   LIG    1       68.831  24.180   0.000  0.00  0.00    +0.063 A 
ATOM      9  N   LIG    1       67.405  23.716   0.000  0.00  0.00    -0.239 NA
ATOM     10  C   LIG    1       67.405  22.216   0.000  0.00  0.00    +0.221 A 
ATOM     11  N   LIG    1       68.831  21.753   0.000  0.00  0.00    -0.242 NA
ATOM     12  C   LIG    1       69.713  22.966   0.000  0.00  0.00    +0.135 A 
ENDBRANCH   7   8
ENDBRANCH   2   7
TORSDOF 4
REMARK  Name = molecules/XVVOERDUTLJJHN-IAEQDCLQSA-N.pdb
REMARK                            x       y       z     vdW  Elec       q    Type
REMARK                         _______ _______ _______ _____ _____    ______ ____
ROOT
ATOM      1  N   LIG    1       71.612  32.739   0.000  0.00  0.00    -0.130 NA
ATOM      2  C   LIG    1       72.076  34.166   0.000  0.00  0.00    +0.184 C 
ENDROOT
BRANCH   2   3
ATOM      3  C   LIG    1       70.649  34.629   0.000  0.00  0.00    +0.256 C 
ATOM      4  O   LIG    1       69.421  33.769   0.000  0.00  0.00    -0.272 OA
BRANCH   3   5
ATOM      5  N   LIG    1       70.337  36.097   0.000  0.00  0.00    -0.195 NA
ATOM      6  C   LIG    1       68.911  36.560   0.000  0.00  0.00    +0.127 C 
ENDBRANCH   3   5
ENDBRANCH   2   3
BRANCH   2   7
ATOM      7  C   LIG    1       73.502  33.702   0.000  0.00  0.00    +0.034 C 
BRANCH   7   8
ATOM      8  C   LIG    1       74.929  33.239   0.000  0.00  0.00    +0.131 C 
BRANCH   8   9
ATOM      9  C   LIG    1       76.356  32.775   0.000  0.00  0.00    +0.356 C 
ATOM     10  O   LIG    1       77.470  33.779   0.000  0.00  0.00    -0.246 OA
ATOM     11  O   LIG    1       76.668  31.308   0.000  0.00  0.00    -0.246 OA
ENDBRANCH   8   9
ENDBRANCH   7   8
ENDBRANCH   2   7
TORSDOF 5
REMARK  Name = molecules/XVVOERDUTLJJHN-IAEQDCLQSA-N.pdb
REMARK                            x       y       z     vdW  Elec       q    Type
REMARK                         _______ _______ _______ _____ _____    ______ ____
ROOT
ATOM      1  N   LIG    1       63.012  34.745   0.000  0.00  0.00    -0.278 NA
ATOM      2  C   LIG    1       62.549  33.319   0.000  0.00  0.00    +0.106 C 
ENDROOT
BRANCH   2   3
ATOM      3  C   LIG    1       63.975  32.855   0.000  0.00  0.00    +0.028 C 
ATOM      4  C   LIG    1       65.402  32.391   0.000  0.00  0.00    -0.016 C 
BRANCH   4   5
ATOM      5  C   LIG    1       65.714  30.924   0.000  0.00  0.00    +0.008 C 
ATOM      6  C   LIG    1       67.140  30.461   0.000  0.00  0.00    +0.000 C 
BRANCH   6   7
ATOM      7  C   LIG    1       68.255  31.464   0.000  0.00  0.00    -0.004 C 
ATOM      8  C   LIG    1       67.943  32.932   0.000  0.00  0.00    -0.022 C 
ATOM      9  C   LIG    1       66.517  33.395   0.000  0.00  0.00    +0.026 C 
ENDBRANCH   6   7
ENDBRANCH   4   5
ENDBRANCH   2   3
BRANCH   1  10
ATOM     10  C   LIG    1       64.479  35.057   0.000  0.00  0.00    +0.139 C 
BRANCH  10  11
ATOM     11  C   LIG    1       64.943  36.483   0.000  0.00  0.00    +0.144 C 
BRANCH  11  12
ATOM     12  C   LIG    1       65.406  37.910   0.000  0.00  0.00    +0.154 C 
ATOM     13  C   LIG    1       65.870  39.337   0.000  0.00  0.00    +0.050 C 
ATOM     14  O   LIG    1       63.980  38.374   0.000  0.00  0.00    -0.223 OA
ENDBRANCH  11  12
BRANCH  11  15
ATOM     15  N   LIG    1       66.370  36.020   0.000  0.00  0.00    -0.219 NA
ATOM     16  C   LIG    1       67.484  37.024   0.000  0.00  0.00    +0.107 C 
ENDBRANCH  11  15
ENDBRANCH  10  11
ENDBRANCH   1  10
TORSDOF 7
REMARK  Name = molecules/XVVOERDUTLJJHN-IAEQDCLQSA-N.pdb
REMARK                            x       y       z     vdW  Elec       q    Type
REMARK                         _______ _______ _______ _____ _____    ______ ____
ROOT
ATOM      1  N   LIG    1       60.007  32.778   0.000  0.00  0.00    -0.134 NA
ATOM      2  C   LIG    1       58.581  33.242   0.000  0.00  0.00    +0.163 C 
ATOM      3  C   LIG    1       59.044  34.668   0.000  0.00  0.00    +0.170 C 
ATOM      4  O   LIG    1       57.618  35.132   0.000  0.00  0.00    -0.292 OA
ATOM      5  C   LIG    1       59.508  36.095   0.000  0.00  0.00    +0.092 C 
ENDROOT
TORSDOF 0
REMARK  Name = molecules/XVVOERDUTLJJHN-IAEQDCLQSA-N.pdb
REMARK                            x       y       z     vdW  Elec       q    Type
REMARK                         _______ _______ _______ _____ _____    ______ ____
ROOT
ATOM      1  C   LIG    1       52.219  30.000   0.000  0.00  0.00    +0.182 C 
ENDROOT
BRANCH   1   2
ATOM      2  C   LIG    1       52.682  31.427   0.000  0.00  0.00    +0.060 C 
ATOM      3  C   LIG    1       53.146  32.853   0.000  0.00  0.00    +0.223 C 
ATOM      4  O   LIG    1       52.142  33.968   0.000  0.00  0.00    -0.284 OA
ENDBRANCH   1   2
BRANCH   1   6
ATOM      5  C   LIG    1       54.760  30.540   0.000  0.00  0.00    +0.082 C 
ATOM      6  N   LIG    1       53.645  29.537   0.000  0.00  0.00    -0.271 NA
BRANCH   5   8
ATOM      7  N   LIG    1       56.650  31.503   0.000  0.00  0.00    -0.130 NA
ATOM      8  CA  LIG    1       56.187  30.077   0.000  0.00  0.00    +0.177 C 
BRANCH   8   9
ATOM      9  C   LIG    1       57.613  29.613   0.000  0.00  0.00    +0.216 C 
ATOM     10  O   LIG    1       59.040  29.150   0.000  0.00  0.00    -0.226 OA
ENDBRANCH   8   9
ENDBRANCH   5   8
ENDBRANCH   1   6
BRANCH   1  11
ATOM     11  C   LIG    1       51.755  28.574   0.000  0.00  0.00    +0.088 C 
ATOM     12  N   LIG    1       50.288  28.262   0.000  0.00  0.00    -0.280 NA
BRANCH  12  13
ATOM     13  C   LIG    1       49.824  26.835   0.000  0.00  0.00    +0.117 C 
ATOM     14  C   LIG    1       48.398  27.299   0.000  0.00  0.00    +0.020 C 
BRANCH  13  15
ATOM     15  C   LIG    1       51.251  26.372   0.000  0.00  0.00    +0.022 C 
BRANCH  15  16
ATOM     16  C   LIG    1       52.678  25.908   0.000  0.00  0.00    -0.012 C 
ATOM     17  C   LIG    1       52.214  24.482   0.000  0.00  0.00    +0.007 C 
ATOM     18  C   LIG    1       54.104  25.445   0.000  0.00  0.00    +0.007 C 
ENDBRANCH  15  16
ENDBRANCH  13  15
ENDBRANCH  12  13
ENDBRANCH   1  11
TORSDOF 8
REMARK  Name = molecules/XVVOERDUTLJJHN-IAEQDCLQSA-N.pdb
REMARK                            x       y       z     vdW  Elec       q    Type
REMARK                         _______ _______ _______ _____ _____    ______ ____
ROOT
ATOM      1  N   GLY A  1       47.283  26.295   0.000  0.00  0.00    -0.134 NA
ATOM      2  CA  GLY A  1       45.856  26.759   0.000  0.00  0.00    +0.160 C 
ATOM      3  C   GLY A  1       46.320  28.185   0.000  0.00  0.00    +0.269 C 
ATOM      4  O   GLY A  1       46.783  29.612   0.000  0.00  0.00    -0.295 OA
ENDROOT
TORSDOF 0
REMARK  Name = molecules/XVVOERDUTLJJHN-IAEQDCLQSA-N.pdb
REMARK                            x       y       z     vdW  Elec       q    Type
REMARK                         _______ _______ _______ _____ _____    ______ ____
ROOT
ATOM      1  C   LIG    1       44.889  23.130   0.000  0.00  0.00    +0.013 C 
ENDROOT
BRANCH   1   2
ATOM      2  C   LIG    1       43.462  23.593   0.000  0.00  0.00    +0.085 C 
ATOM      3  C   LIG    1       42.036  24.057   0.000  0.00  0.00    +0.013 C 
BRANCH   2   4
ATOM      4  N   LIG    1       43.926  25.020   0.000  0.00  0.00    -0.223 NA
ATOM      5  C   LIG    1       45.393  25.332   0.000  0.00  0.00    +0.107 C 
ENDBRANCH   2   4
ENDBRANCH   1   2
BRANCH   1   6
ATOM      6  C   LIG    1       46.315  22.666   0.000  0.00  0.00    +0.007 C 
BRANCH   6   7
ATOM      7  C   LIG    1       47.742  22.203   0.000  0.00  0.00    +0.019 C 
BRANCH   7   8
ATOM      8  C   LIG    1       49.169  21.739   0.000  0.00  0.00    +0.124 C 
ATOM      9  N   LIG    1       50.595  21.276   0.000  0.00  0.00    -0.143 NA
ENDBRANCH   7   8
ENDBRANCH   6   7
ENDBRANCH   1   6
TORSDOF 5
REMARK  Name = molecules/XVVOERDUTLJJHN-IAEQDCLQSA-N.pdb
REMARK                            x       y       z     vdW  Elec       q    Type
REMARK                         _______ _______ _______ _____ _____    ______ ____
ROOT
ATOM      1  C   LIG    1       40.421  26.370   0.000  0.00  0.00    +0.127 C 
ENDROOT
BRANCH   1   4
ATOM      2  N   LIG    1       40.921  23.053   0.000  0.00  0.00    -0.138 NA
ATOM      3  C   LIG    1       39.494  23.517   0.000  0.00  0.00    +0.114 C 
ATOM      4  C   LIG    1       39.958  24.943   0.000  0.00  0.00    +0.001 C 
ENDBRANCH   1   4
BRANCH   1   5
ATOM      5  C   LIG    1       40.885  27.797   0.000  0.00  0.00    +0.256 C 
ATOM      6  O   LIG    1       42.352  28.108   0.000  0.00  0.00    -0.272 OA
ATOM      7  N   LIG    1       39.881  28.911   0.000  0.00  0.00    -0.088 NA
ENDBRANCH   1   5
TORSDOF 2
REMARK  Name = molecules/XVVOERDUTLJJHN-IAEQDCLQSA-N.pdb
REMARK                            x       y       z     vdW  Elec       q    Type
REMARK                         _______ _______ _______ _____ _____    ______ ____
ROOT
ATOM      1  C   LIG    1       35.673  20.815   0.000  0.00  0.00    +0.077 C 
ATOM      2  N   LIG    1       34.559  19.812   0.000  0.00  0.00    -0.281 NA
ENDROOT
BRANCH   2   3
ATOM      3  C   LIG    1       33.132  20.275   0.000  0.00  0.00    +0.118 C 
ATOM      4  C   LIG    1       32.669  18.849   0.000  0.00  0.00    +0.020 C 
BRANCH   3   5
ATOM      5  C   LIG    1       33.596  21.702   0.000  0.00  0.00    +0.030 C 
BRANCH   5   6
ATOM      6  C   LIG    1       34.059  23.128   0.000  0.00  0.00    +0.131 C 
BRANCH   6   7
ATOM      7  C   LIG    1       34.523  24.555   0.000  0.00  0.00    +0.356 C 
ATOM      8  O   LIG    1       35.990  24.867   0.000  0.00  0.00    -0.246 OA
ATOM      9  O   LIG    1       33.519  25.670   0.000  0.00  0.00    -0.246 OA
ENDBRANCH   6   7
ENDBRANCH   5   6
ENDBRANCH   3   5
ENDBRANCH   2   3
BRANCH   1  10
ATOM     10  C   LIG    1       37.100  20.352   0.000  0.00  0.00    +0.128 C 
BRANCH  10  11
ATOM     11  N   LIG    1       37.564  21.778   0.000  0.00  0.00    -0.218 NA
ATOM     12  C   LIG    1       39.031  22.090   0.000  0.00  0.00    +0.107 C 
ENDBRANCH  10  11
BRANCH  10  13
ATOM     13  C   LIG    1       38.527  19.888   0.000  0.00  0.00    +0.029 C 
BRANCH  13  14
ATOM     14  C   LIG    1       39.953  19.425   0.000  0.00  0.00    +0.074 C 
BRANCH  14  15
ATOM     15  S   LIG    1       41.380  18.961   0.000  0.00  0.00    -0.164 S 
ATOM     16  C   LIG    1       41.692  17.494   0.000  0.00  0.00    +0.084 C 
ENDBRANCH  14  15
ENDBRANCH  13  14
ENDBRANCH  10  13
ENDBRANCH   1  10
TORSDOF 9
REMARK  Name = molecules/XVVOERDUTLJJHN-IAEQDCLQSA-N.pdb
REMARK                            x       y       z     vdW  Elec       q    Type
REMARK                         _______ _______ _______ _____ _____    ______ ____
ROOT
ATOM      1  C   LIG    1       33.591  16.183   0.000  0.00  0.00    +0.153 C 
ENDROOT
BRANCH   1   4
ATOM      2  N   LIG    1       31.201  18.537   0.000  0.00  0.00    -0.138 NA
ATOM      3  C   LIG    1       30.738  17.110   0.000  0.00  0.00    +0.114 C 
ATOM      4  C   LIG    1       32.164  16.646   0.000  0.00  0.00    +0.003 C 
ENDBRANCH   1   4
BRANCH   1   5
ATOM      5  C   LIG    1       35.018  15.720   0.000  0.00  0.00    +0.360 C 
ATOM      6  O   LIG    1       36.132  16.723   0.000  0.00  0.00    -0.246 OA
ATOM      7  O   LIG    1       35.330  14.252   0.000  0.00  0.00    -0.246 OA
ENDBRANCH   1   5
TORSDOF 2
REMARK  Name = molecules/XVVOERDUTLJJHN-IAEQDCLQSA-N.pdb
REMARK                            x       y       z     vdW  Elec       q    Type
REMARK                         _______ _______ _______ _____ _____    ______ ____
ROOT
ATOM      1  N   LIG    1       28.197  16.570   0.000  0.00  0.00    -0.133 NA
ATOM      2  C   LIG    1       26.770  17.033   0.000  0.00  0.00    +0.147 C 
ENDROOT
BRANCH   2   3
ATOM      3  C   LIG    1       26.306  15.607   0.000  0.00  0.00    +0.079 C 
ATOM      4  N   LIG    1       24.839  15.295   0.000  0.00  0.00    -0.273 NA
BRANCH   4   5
ATOM      5  C   LIG    1       24.376  13.868   0.000  0.00  0.00    +0.121 C 
ATOM      6  C   LIG    1       25.802  13.405   0.000  0.00  0.00    +0.033 C 
ENDBRANCH   4   5
ENDBRANCH   2   3
BRANCH   2   7
ATOM      7  C   LIG    1       27.233  18.460   0.000  0.00  0.00    +0.031 C 
BRANCH   7   8
ATOM      8  C   LIG    1       27.697  19.887   0.000  0.00  0.00    +0.131 C 
BRANCH   8   9
ATOM      9  C   LIG    1       28.161  21.313   0.000  0.00  0.00    +0.356 C 
ATOM     10  O   LIG    1       27.157  22.428   0.000  0.00  0.00    -0.246 OA
ATOM     11  O   LIG    1       29.628  21.625   0.000  0.00  0.00    -0.246 OA
ENDBRANCH   8   9
ENDBRANCH   7   8
ENDBRANCH   2   7
TORSDOF 5
REMARK  Name = molecules/XVVOERDUTLJJHN-IAEQDCLQSA-N.pdb
REMARK                            x       y       z     vdW  Elec       q    Type
REMARK                         _______ _______ _______ _____ _____    ______ ____
ROOT
ATOM      1  N   LIG    1       21.834  13.328   0.000  0.00  0.00    -0.138 NA
ATOM      2  C   LIG    1       20.408  13.792   0.000  0.00  0.00    +0.117 C 
ATOM      3  C   LIG    1       20.871  15.218   0.000  0.00  0.00    +0.021 C 
ENDROOT
TORSDOF 0
REMARK  Name = molecules/XVVOERDUTLJJHN-IAEQDCLQSA-N.pdb
REMARK                            x       y       z     vdW  Elec       q    Type
REMARK                         _______ _______ _______ _____ _____    ______ ____
ROOT
ATOM      1  C   LIG    1       18.014  10.627   0.000  0.00  0.00    +0.128 C 
ENDROOT
BRANCH   1   2
ATOM      2  N   LIG    1       18.477  12.053   0.000  0.00  0.00    -0.218 NA
ATOM      3  C   LIG    1       19.944  12.365   0.000  0.00  0.00    +0.107 C 
ENDBRANCH   1   2
BRANCH   1   4
ATOM      4  C   LIG    1       16.587  11.090   0.000  0.00  0.00    +0.083 C 
ATOM      5  N   LIG    1       15.472  10.086   0.000  0.00  0.00    -0.257 NA
BRANCH   5   6
ATOM      6  C   LIG    1       14.046  10.550   0.000  0.00  0.00    +0.107 C 
ATOM      7  C   LIG    1       14.509  11.977   0.000  0.00  0.00    -0.004 C 
BRANCH   7   8
ATOM      8  C   LIG    1       14.973  13.403   0.000  0.00  0.00    +0.007 C 
ATOM      9  C   LIG    1       13.546  13.867   0.000  0.00  0.00    +0.011 C 
ATOM     10  C   LIG    1       15.436  14.830   0.000  0.00  0.00    +0.011 C 
ENDBRANCH   7   8
ENDBRANCH   5   6
ENDBRANCH   1   4
BRANCH   1  11
ATOM     11  C   LIG    1       19.440  10.163   0.000  0.00  0.00    +0.022 C 
BRANCH  11  12
ATOM     12  C   LIG    1       20.867   9.700   0.000  0.00  0.00    +0.046 C 
BRANCH  12  13
ATOM     13  C   LIG    1       22.293   9.236   0.000  0.00  0.00    +0.244 C 
BRANCH  13  14
ATOM     14  N   LIG    1       23.720   8.773   0.000  0.00  0.00    -0.108 NA
BRANCH  14  15
ATOM     15  C   LIG    1       24.835   9.776   0.000  0.00  0.00    +0.457 C 
ATOM     16  N   LIG    1       26.261   9.313   0.000  0.00  0.00    +0.128 NA
BRANCH  15  17
ATOM     17  N   LIG    1       24.523  11.243   0.000  0.00  0.00    -0.284 N 
ATOM     18  H   LIG    1       23.912  12.442   0.000  0.00  0.00    +0.255 HD
ATOM     19  H   LIG    1       25.516  11.932   0.000  0.00  0.00    +0.255 HD
ENDBRANCH  15  17
ENDBRANCH  14  15
ENDBRANCH  13  14
ENDBRANCH  12  13
ENDBRANCH  11  12
ENDBRANCH   1  11
TORSDOF 10
REMARK  Name = molecules/XVVOERDUTLJJHN-IAEQDCLQSA-N.pdb
REMARK                            x       y       z     vdW  Elec       q    Type
REMARK                         _______ _______ _______ _____ _____    ______ ____
ROOT
ATOM      1  N   LIG    1       12.115   8.812   0.000  0.00  0.00    -0.217 NA
ATOM      2  C   LIG    1       13.582   9.123   0.000  0.00  0.00    +0.107 C 
ENDROOT
BRANCH   1   3
ATOM      3  C   LIG    1       11.651   7.385   0.000  0.00  0.00    +0.089 C 
ATOM      4  C   LIG    1       10.225   7.848   0.000  0.00  0.00    +0.020 C 
ENDBRANCH   1   3
TORSDOF 1
REMARK  Name = molecules/XVVOERDUTLJJHN-IAEQDCLQSA-N.pdb
REMARK                            x       y       z     vdW  Elec       q    Type
REMARK                         _______ _______ _______ _____ _____    ______ ____
ROOT
ATOM      1  N   LIG    1        9.110   6.845   0.000  0.00  0.00    -0.140 NA
ATOM      2  N   LIG    1        8.127   6.896   0.000  0.00  0.00    -0.024 NA
ATOM      3  H   LIG    1        8.786   7.696   0.000  0.00  0.00    +0.165 HD
ENDROOT
TORSDOF 0
REMARK  Name = molecules/XVVOERDUTLJJHN-IAEQDCLQSA-N.pdb
REMARK                            x       y       z     vdW  Elec       q    Type
REMARK                         _______ _______ _______ _____ _____    ______ ____
ROOT
ATOM      1  N   LIG    1        5.753   5.570   0.000  0.00  0.00    +0.000 NA
ENDROOT
TORSDOF 0
REMARK  Name = molecules/XVVOERDUTLJJHN-IAEQDCLQSA-N.pdb
REMARK                            x       y       z     vdW  Elec       q    Type
REMARK                         _______ _______ _______ _____ _____    ______ ____
ROOT
ATOM      1  N   LIG    1        4.710   6.331   0.000  0.00  0.00    -0.215 NA
ATOM      2  C   LIG    1        4.665   7.078   0.000  0.00  0.00    +0.121 C 
ATOM      3  C   LIG    1        5.669   5.963   0.000  0.00  0.00    +0.108 C 
ENDROOT
BRANCH   1   4
ATOM      4  N   LIG    1        3.551   6.074   0.000  0.00  0.00    -0.175 NA
ATOM      5  H   LIG    1        2.348   6.413   0.000  0.00  0.00    +0.162 HD
ENDBRANCH   1   4
TORSDOF 1
REMARK  Name = molecules/XVVOERDUTLJJHN-IAEQDCLQSA-N.pdb
REMARK                            x       y       z     vdW  Elec       q    Type
REMARK                         _______ _______ _______ _____ _____    ______ ____
ROOT
ATOM      1  N   LIG    1        2.195   7.881   0.000  0.00  0.00    -0.311 NA
ATOM      2  C   LIG    1        1.191   8.995   0.000  0.00  0.00    +0.078 C 
ATOM      3  H   LIG    1        2.124   6.538   0.000  0.00  0.00    +0.186 HD
ENDROOT
BRANCH   2   4
ATOM      4  C   LIG    1        0.076   7.992   0.000  0.00  0.00    +0.073 C 
BRANCH   4   5
ATOM      5  C   LIG    1       -1.038   6.988   0.000  0.00  0.00    -0.029 C 
ATOM      6  C   LIG    1       -0.035   5.873   0.000  0.00  0.00    +0.004 C 
ENDBRANCH   4   5
ENDBRANCH   2   4
TORSDOF 2
REMARK  Name = molecules/XVVOERDUTLJJHN-IAEQDCLQSA-N.pdb
REMARK                            x       y       z     vdW  Elec       q    Type
REMARK                         _______ _______ _______ _____ _____    ______ ____
ROOT
ATOM      1  C   LIG    1        1.565  16.126   0.000  0.00  0.00    +0.205 C 
ENDROOT
BRANCH   1   2
ATOM      2  C   LIG    1        0.450  15.122   0.000  0.00  0.00    +0.257 C 
ATOM      3  O   LIG    1        0.581  13.628   0.000  0.00  0.00    -0.272 OA
ATOM      4  N   LIG    1       -0.977  15.586   0.000  0.00  0.00    -0.207 NA
BRANCH   4   5
ATOM      5  C   LIG    1       -2.091  14.582   0.000  0.00  0.00    +0.228 C 
BRANCH   5   6
ATOM      6  C   LIG    1       -3.206  13.578   0.000  0.00  0.00    +0.253 C 
ATOM      7  O   LIG    1       -2.894  12.111   0.000  0.00  0.00    -0.272 OA
ATOM      8  N   LIG    1       -4.633  14.042   0.000  0.00  0.00    -0.189 NA
BRANCH   8   9
ATOM      9  C   LIG    1       -5.747  13.038   0.000  0.00  0.00    +0.287 C 
BRANCH   9  10
ATOM     10  O   LIG    1       -5.593  11.759   0.000  0.00  0.00    -0.375 OA
ATOM     11  H   LIG    1       -4.546  11.317   0.000  0.00  0.00    +0.212 HD
ENDBRANCH   9  10
ENDBRANCH   8   9
ENDBRANCH   5   6
ENDBRANCH   4   5
ENDBRANCH   1   2
BRANCH   1  13
ATOM     12  C   LIG    1        2.105  13.585   0.000  0.00  0.00    +0.206 C 
ATOM     13  N   LIG    1        2.568  15.011   0.000  0.00  0.00    -0.240 NA
BRANCH  12  15
ATOM     14  N   LIG    1        1.994  11.466   0.000  0.00  0.00    -0.128 NA
ATOM     15  C   LIG    1        3.108  12.470   0.000  0.00  0.00    +0.207 C 
ENDBRANCH  12  15
BRANCH  12  16
ATOM     16  O   LIG    1        0.686  13.096   0.000  0.00  0.00    -0.494 OA
ATOM     17  H   LIG    1        0.567  11.930   0.000  0.00  0.00    +0.293 HD
ENDBRANCH  12  16
ENDBRANCH   1  13
BRANCH   1  18
ATOM     18  C   LIG    1        2.679  17.130   0.000  0.00  0.00    +0.135 C 
BRANCH  18  19
ATOM     19  C   LIG    1        3.794  18.133   0.000  0.00  0.00    +0.254 C 
ATOM     20  O   LIG    1        3.482  19.601   0.000  0.00  0.00    -0.272 OA
ATOM     21  N   LIG    1        5.221  17.670   0.000  0.00  0.00    -0.088 NA
ENDBRANCH  18  19
ENDBRANCH   1  18
TORSDOF 10
REMARK  Name = molecules/XVVOERDUTLJJHN-IAEQDCLQSA-N.pdb
REMARK                            x       y       z     vdW  Elec       q    Type
REMARK                         _______ _______ _______ _____ _____    ______ ____
ROOT
ATOM      1  C   LIG    1       -6.521   8.905   0.000  0.00  0.00    +0.002 C 
ATOM      2  C   LIG    1       -5.337   8.465   0.000  0.00  0.00    +0.041 C 
ATOM      3  C   LIG    1       -6.804   8.154   0.000  0.00  0.00    -0.126 C 
ATOM      4  C   LIG    1       -6.984   7.479   0.000  0.00  0.00    +0.068 C 
ENDROOT
BRANCH   1   5
ATOM      5  C   LIG    1       -7.554   9.453   0.000  0.00  0.00    +0.113 C 
BRANCH   5   6
ATOM      6  N   LIG    1       -6.550  10.567   0.000  0.00  0.00    -0.240 NA
ATOM      7  H   LIG    1       -7.417  10.966   0.000  0.00  0.00    +0.142 HD
ENDBRANCH   5   6
ENDBRANCH   1   5
TORSDOF 2
REMARK  Name = molecules/XVVOERDUTLJJHN-IAEQDCLQSA-N.pdb
REMARK                            x       y       z     vdW  Elec       q    Type
REMARK                         _______ _______ _______ _____ _____    ______ ____
ROOT
ATOM      1  N   LIG    1      -10.025  10.255   0.000  0.00  0.00    +0.000 NA
ENDROOT
TORSDOF 0
REMARK  Name = molecules/XVVOERDUTLJJHN-IAEQDCLQSA-N.pdb
REMARK                            x       y       z     vdW  Elec       q    Type
REMARK                         _______ _______ _______ _____ _____    ______ ____
ROOT
ATOM      1  N   LIG    1       -7.947   9.369   0.000  0.00  0.00    -0.244 NA
ATOM      2  C   LIG    1       -8.558  10.567   0.000  0.00  0.00    +0.103 C 
ATOM      3  H   LIG    1       -8.768   8.571   0.000  0.00  0.00    +0.141 HD
ENDROOT
TORSDOF 0
REMARK  Name = molecules/XVVOERDUTLJJHN-IAEQDCLQSA-N.pdb
REMARK                            x       y       z     vdW  Elec       q    Type
REMARK                         _______ _______ _______ _____ _____    ______ ____
ROOT
ATOM      1  N   LIG    1       -8.451   7.167   0.000  0.00  0.00    -0.041 NA
ATOM      2  N   LIG    1       -9.563   6.837   0.000  0.00  0.00    -0.209 NA
ATOM      3  C   LIG    1       -8.915   5.740   0.000  0.00  0.00    +0.106 C 
ATOM      4  H   LIG    1      -10.387   6.027   0.000  0.00  0.00    +0.145 HD
ENDROOT
TORSDOF 0
REMARK  Name = molecules/XVVOERDUTLJJHN-IAEQDCLQSA-N.pdb
REMARK                            x       y       z     vdW  Elec       q    Type
REMARK                         _______ _______ _______ _____ _____    ______ ____
ROOT
ATOM      1  N   LIG    1       -9.571   0.645   0.000  0.00  0.00    -0.286 NA
ATOM      2  C   LIG    1      -10.574  -0.470   0.000  0.00  0.00    +0.101 C 
ENDROOT
BRANCH   1   3
ATOM      3  C   LIG    1       -8.200   0.035   0.000  0.00  0.00    +0.073 C 
ATOM      4  C   LIG    1       -7.737   1.461   0.000  0.00  0.00    +0.012 C 
BRANCH   3   5
ATOM      5  C   LIG    1       -8.357  -1.457   0.000  0.00  0.00    +0.006 C 
ATOM      6  C   LIG    1       -7.425  -2.486   0.000  0.00  0.00    +0.006 C 
ENDBRANCH   3   5
ENDBRANCH   1   3
BRANCH   1   7
ATOM      7  C   LIG    1       -9.883   2.112   0.000  0.00  0.00    +0.084 C 
BRANCH   7   9
ATOM      8  N   LIG    1      -10.846   4.002   0.000  0.00  0.00    -0.138 NA
ATOM      9  C   LIG    1      -11.309   2.575   0.000  0.00  0.00    +0.114 C 
ATOM     10  C   LIG    1      -12.736   3.039   0.000  0.00  0.00    +0.029 C 
ENDBRANCH   7   9
ENDBRANCH   1   7
TORSDOF 4
REMARK  Name = molecules/XVVOERDUTLJJHN-IAEQDCLQSA-N.pdb
REMARK                            x       y       z     vdW  Elec       q    Type
REMARK                         _______ _______ _______ _____ _____    ______ ____
ROOT
ATOM      1  N   LIG    1       -6.270   1.773   0.000  0.00  0.00    -0.163 NA
ATOM      2  H   LIG    1       -7.486   1.595   0.000  0.00  0.00    +0.163 HD
ENDROOT
TORSDOF 0
REMARK  Name = molecules/XVVOERDUTLJJHN-IAEQDCLQSA-N.pdb
REMARK                            x       y       z     vdW  Elec       q    Type
REMARK                         _______ _______ _______ _____ _____    ______ ____
ROOT
ATOM      1  N   LIG    1       -4.883  -1.815   0.000  0.00  0.00    -0.130 NA
ATOM      2  C   LIG    1       -6.212  -1.604   0.000  0.00  0.00    +0.130 C 
ENDROOT
TORSDOF 0
REMARK  Name = molecules/XVVOERDUTLJJHN-IAEQDCLQSA-N.pdb
REMARK                            x       y       z     vdW  Elec       q    Type
REMARK                         _______ _______ _______ _____ _____    ______ ____
ROOT
ATOM      1  N   LIG    1       -1.418  -2.756   0.000  0.00  0.00    -0.129 NA
ATOM      2  CA  LIG    1       -1.900  -1.501   0.000  0.00  0.00    +0.117 C 
ATOM      3  C   LIG    1       -3.113  -2.383   0.000  0.00  0.00    +0.111 C 
ATOM      4  C   LIG    1       -4.002  -3.028   0.000  0.00  0.00    +0.199 C 
ATOM      5  O   LIG    1       -4.777  -2.043   0.000  0.00  0.00    -0.278 OA
ATOM      6  C   LIG    1       -5.052  -3.542   0.000  0.00  0.00    +0.092 C 
ATOM      7  N   LIG    1       -2.957  -3.874   0.000  0.00  0.00    -0.282 N 
ATOM      8  H   LIG    1       -3.440  -4.419   0.000  0.00  0.00    +0.155 HD
ENDROOT
BRANCH   2   9
ATOM      9  C   LIG    1       -1.086  -0.661   0.000  0.00  0.00    +0.228 C 
ATOM     10  O   LIG    1       -1.890  -0.295   0.000  0.00  0.00    -0.214 OA
ENDBRANCH   2   9
TORSDOF 1
REMARK  Name = molecules/XVVOERDUTLJJHN-IAEQDCLQSA-N.pdb
REMARK                            x       y       z     vdW  Elec       q    Type
REMARK                         _______ _______ _______ _____ _____    ______ ____
ROOT
ATOM      1  C   LIG    1       -0.204  -1.875   0.000  0.00  0.00    -0.023 C 
ENDROOT
BRANCH   1   2
ATOM      2  C   LIG    1       -0.686  -0.619   0.000  0.00  0.00    -0.087 C 
BRANCH   2   3
ATOM      3  N   LIG    1       -0.476   0.709   0.000  0.00  0.00    +0.382 N 
ATOM      4  C   LIG    1        0.527   0.263   0.000  0.00  0.00    -0.106 C 
ATOM      5  H   LIG    1       -1.413   0.693   0.000  0.00  0.00    -0.085 HD
ATOM      6  H   LIG    1       -0.035   1.653   0.000  0.00  0.00    -0.085 HD
ENDBRANCH   2   3
ENDBRANCH   1   2
BRANCH   1   7
ATOM      7  C   LIG    1        0.677  -3.088   0.000  0.00  0.00    +0.002 C 
BRANCH   7   8
ATOM      8  C   LIG    1        1.559  -4.302   0.000  0.00  0.00    +0.002 C 
BRANCH   8   9
ATOM      9  C   LIG    1        2.441  -5.515   0.000  0.00  0.00    +0.018 C 
BRANCH   9  10
ATOM     10  C   LIG    1        3.322  -6.729   0.000  0.00  0.00    +0.124 C 
ATOM     11  N   LIG    1        4.204  -7.942   0.000  0.00  0.00    -0.143 NA
ENDBRANCH   9  10
ENDBRANCH   8   9
ENDBRANCH   7   8
ENDBRANCH   1   7
TORSDOF 6
REMARK  Name = molecules/XVVOERDUTLJJHN-IAEQDCLQSA-N.pdb
REMARK                            x       y       z     vdW  Elec       q    Type
REMARK                         _______ _______ _______ _____ _____    ______ ____
ROOT
ATOM      1  N   LIG    1       -3.941   1.651   0.000  0.00  0.00    -0.142 NA
ATOM      2  C   LIG    1       -4.168   2.987   0.000  0.00  0.00    +0.142 C 
ENDROOT
TORSDOF 0
REMARK  Name = molecules/XVVOERDUTLJJHN-IAEQDCLQSA-N.pdb
REMARK                            x       y       z     vdW  Elec       q    Type
REMARK                         _______ _______ _______ _____ _____    ______ ____
ROOT
ATOM      1  N   LIG    1       -2.781  -0.287   0.000  0.00  0.00    -0.010 NA
ATOM      2  O   LIG    1       -2.226  -0.756   0.000  0.00  0.00    -0.092 OA
ATOM      3  O   LIG    1       -2.882  -1.006   0.000  0.00  0.00    -0.092 OA
ATOM      4  H   LIG    1       -2.674   0.596   0.000  0.00  0.00    +0.194 HD
ENDROOT
TORSDOF 0
REMARK  Name = molecules/XVVOERDUTLJJHN-IAEQDCLQSA-N.pdb
REMARK                            x       y       z     vdW  Elec       q    Type
REMARK                         _______ _______ _______ _____ _____    ______ ____
ROOT
ATOM      1  N   LIG    1       -6.543  -3.699   0.000  0.00  0.00    -0.194 NA
ATOM      2  H   LIG    1       -6.238  -2.813   0.000  0.00  0.00    +0.154 HD
ENDROOT
BRANCH   1   3
ATOM      3  O   LIG    1       -6.429  -4.791   0.000  0.00  0.00    -0.314 OA
ATOM      4  H   LIG    1       -7.316  -4.985   0.000  0.00  0.00    +0.236 HD
ENDBRANCH   1   3
BRANCH   1   5
ATOM      5  C   LIG    1       -5.215  -3.910   0.000  0.00  0.00    +0.092 C 
ATOM      6  C   LIG    1       -4.170  -4.756   0.000  0.00  0.00    +0.026 C 
ENDBRANCH   1   5
TORSDOF 2
REMARK  Name = molecules/XVVOERDUTLJJHN-IAEQDCLQSA-N.pdb
REMARK                            x       y       z     vdW  Elec       q    Type
REMARK                         _______ _______ _______ _____ _____    ______ ____
ROOT
ATOM      1  N   LIG    1       -6.368  -0.112   0.000  0.00  0.00    -0.163 NA
ATOM      2  H   LIG    1       -6.957  -0.919   0.000  0.00  0.00    +0.163 HD
ENDROOT
TORSDOF 0
REMARK  Name = molecules/XVVOERDUTLJJHN-IAEQDCLQSA-N.pdb
REMARK                            x       y       z     vdW  Elec       q    Type
REMARK                         _______ _______ _______ _____ _____    ______ ____
ROOT
ATOM      1  C   LIG    1       72.616  31.625   0.000  0.00  0.00    +0.000 C 
ENDROOT
TORSDOF 0
REMARK  Name = molecules/XVVOERDUTLJJHN-IAEQDCLQSA-N.pdb
REMARK                            x       y       z     vdW  Elec       q    Type
REMARK                         _______ _______ _______ _____ _____    ______ ____
ROOT
ATOM      1  O   HOH    1       74.110  31.755   0.000  0.00  0.00    -0.253 OA
ATOM      2  H   HOH    0       73.398  32.206   0.000  0.00  0.00    +0.253 HD
ENDROOT
TORSDOF 0
REMARK  Name = molecules/XVVOERDUTLJJHN-IAEQDCLQSA-N.pdb
REMARK                            x       y       z     vdW  Elec       q    Type
REMARK                         _______ _______ _______ _____ _____    ______ ____
ROOT
ATOM      1  O   HOH    1       67.353  38.518   0.000  0.00  0.00    -0.253 OA
ATOM      2  H   HOH    0       66.903  37.806   0.000  0.00  0.00    +0.253 HD
ENDROOT
TORSDOF 0
REMARK  Name = molecules/XVVOERDUTLJJHN-IAEQDCLQSA-N.pdb
REMARK                            x       y       z     vdW  Elec       q    Type
REMARK                         _______ _______ _______ _____ _____    ______ ____
ROOT
ATOM      1  O   HOH    1       65.483  33.942   0.000  0.00  0.00    -0.410 OA
ATOM      2  H   HOH    0       64.770  34.127   0.000  0.00  0.00    +0.205 HD
ATOM      3  H   HOH    0       66.028  34.813   0.000  0.00  0.00    +0.205 HD
ENDROOT
TORSDOF 0
REMARK  Name = molecules/XVVOERDUTLJJHN-IAEQDCLQSA-N.pdb
REMARK                            x       y       z     vdW  Elec       q    Type
REMARK                         _______ _______ _______ _____ _____    ______ ____
ROOT
ATOM      1  C   LIG    1       61.122  33.782   0.000  0.00  0.00    +0.000 C 
ENDROOT
TORSDOF 0
REMARK  Name = molecules/XVVOERDUTLJJHN-IAEQDCLQSA-N.pdb
REMARK                            x       y       z     vdW  Elec       q    Type
REMARK                         _______ _______ _______ _____ _____    ______ ____
ROOT
ATOM      1  O   HOH    1       60.991  35.276   0.000  0.00  0.00    -0.410 OA
ATOM      2  H   HOH    0       60.541  34.564   0.000  0.00  0.00    +0.205 HD
ATOM      3  H   HOH    0       62.008  35.860   0.000  0.00  0.00    +0.205 HD
ENDROOT
TORSDOF 0
REMARK  Name = molecules/XVVOERDUTLJJHN-IAEQDCLQSA-N.pdb
REMARK                            x       y       z     vdW  Elec       q    Type
REMARK                         _______ _______ _______ _____ _____    ______ ____
ROOT
ATOM      1  C   LIG    1       58.117  31.815   0.000  0.00  0.00    +0.000 C 
ENDROOT
TORSDOF 0
REMARK  Name = molecules/XVVOERDUTLJJHN-IAEQDCLQSA-N.pdb
REMARK                            x       y       z     vdW  Elec       q    Type
REMARK                         _______ _______ _______ _____ _____    ______ ____
ROOT
ATOM      1  O   HOH    1       59.121  30.701   0.000  0.00  0.00    -0.410 OA
ATOM      2  H   HOH    0       58.408  30.885   0.000  0.00  0.00    +0.205 HD
ATOM      3  H   HOH    0       60.319  31.311   0.000  0.00  0.00    +0.205 HD
ENDROOT
TORSDOF 0
REMARK  Name = molecules/XVVOERDUTLJJHN-IAEQDCLQSA-N.pdb
REMARK                            x       y       z     vdW  Elec       q    Type
REMARK                         _______ _______ _______ _____ _____    ______ ____
ROOT
ATOM      1  O   LIG    1       54.448  32.008   0.000  0.00  0.00    -0.253 OA
ATOM      2  H   LIG    1       54.178  31.322   0.000  0.00  0.00    +0.253 HD
ENDROOT
BRANCH   1   3
ATOM      3  O   LIG    1       54.613  33.165   0.000  0.00  0.00    -0.253 OA
ATOM      4  H   LIG    1       55.646  32.618   0.000  0.00  0.00    +0.253 HD
ENDBRANCH   1   3
TORSDOF 1
REMARK  Name = molecules/XVVOERDUTLJJHN-IAEQDCLQSA-N.pdb
REMARK                            x       y       z     vdW  Elec       q    Type
REMARK                         _______ _______ _______ _____ _____    ______ ____
ROOT
ATOM      1  O   HOH    1       52.887  27.590   0.000  0.00  0.00    -0.410 OA
ATOM      2  H   HOH    0       53.957  28.069   0.000  0.00  0.00    +0.205 HD
ATOM      3  H   HOH    0       52.046  27.644   0.000  0.00  0.00    +0.205 HD
ENDROOT
TORSDOF 0
REMARK  Name = molecules/XVVOERDUTLJJHN-IAEQDCLQSA-N.pdb
REMARK                            x       y       z     vdW  Elec       q    Type
REMARK                         _______ _______ _______ _____ _____    ______ ____
ROOT
ATOM      1  O   HOH    1       48.086  28.766   0.000  0.00  0.00    -0.410 OA
ATOM      2  H   HOH    0       48.251  29.924   0.000  0.00  0.00    +0.205 HD
ATOM      3  H   HOH    0       47.816  28.081   0.000  0.00  0.00    +0.205 HD
ENDROOT
TORSDOF 0
REMARK  Name = molecules/XVVOERDUTLJJHN-IAEQDCLQSA-N.pdb
REMARK                            x       y       z     vdW  Elec       q    Type
REMARK                         _______ _______ _______ _____ _____    ______ ____
ROOT
ATOM      1  O   HOH    1       46.525  24.348   0.000  0.00  0.00    -0.410 OA
ATOM      2  H   HOH    0       47.595  24.828   0.000  0.00  0.00    +0.205 HD
ATOM      3  H   HOH    0       45.684  24.402   0.000  0.00  0.00    +0.205 HD
ENDROOT
TORSDOF 0
REMARK  Name = molecules/XVVOERDUTLJJHN-IAEQDCLQSA-N.pdb
REMARK                            x       y       z     vdW  Elec       q    Type
REMARK                         _______ _______ _______ _____ _____    ______ ____
ROOT
ATOM      1  O   HOH    1       41.905  25.551   0.000  0.00  0.00    -0.410 OA
ATOM      2  H   HOH    0       42.922  26.135   0.000  0.00  0.00    +0.205 HD
ATOM      3  H   HOH    0       41.454  24.839   0.000  0.00  0.00    +0.205 HD
ENDROOT
TORSDOF 0
REMARK  Name = molecules/XVVOERDUTLJJHN-IAEQDCLQSA-N.pdb
REMARK                            x       y       z     vdW  Elec       q    Type
REMARK                         _______ _______ _______ _____ _____    ______ ____
ROOT
ATOM      1  O   HOH    1       40.163  21.106   0.000  0.00  0.00    -0.410 OA
ATOM      2  H   HOH    0       41.233  21.586   0.000  0.00  0.00    +0.205 HD
ATOM      3  H   HOH    0       39.322  21.160   0.000  0.00  0.00    +0.205 HD
ENDROOT
TORSDOF 0
REMARK  Name = molecules/XVVOERDUTLJJHN-IAEQDCLQSA-N.pdb
REMARK                            x       y       z     vdW  Elec       q    Type
REMARK                         _______ _______ _______ _____ _____    ______ ____
ROOT
ATOM      1  O   HOH    1       35.543  22.310   0.000  0.00  0.00    -0.410 OA
ATOM      2  H   HOH    0       36.560  22.893   0.000  0.00  0.00    +0.205 HD
ATOM      3  H   HOH    0       35.092  21.597   0.000  0.00  0.00    +0.205 HD
ENDROOT
TORSDOF 0
REMARK  Name = molecules/XVVOERDUTLJJHN-IAEQDCLQSA-N.pdb
REMARK                            x       y       z     vdW  Elec       q    Type
REMARK                         _______ _______ _______ _____ _____    ______ ____
ROOT
ATOM      1  O   HOH    1       33.801  17.864   0.000  0.00  0.00    -0.410 OA
ATOM      2  H   HOH    0       34.871  18.344   0.000  0.00  0.00    +0.205 HD
ATOM      3  H   HOH    0       32.959  17.919   0.000  0.00  0.00    +0.205 HD
ENDROOT
TORSDOF 0
REMARK  Name = molecules/XVVOERDUTLJJHN-IAEQDCLQSA-N.pdb
REMARK                            x       y       z     vdW  Elec       q    Type
REMARK                         _______ _______ _______ _____ _____    ______ ____
ROOT
ATOM      1  C   LIG    1       29.311  17.574   0.000  0.00  0.00    +0.000 C 
ENDROOT
TORSDOF 0
REMARK  Name = molecules/XVVOERDUTLJJHN-IAEQDCLQSA-N.pdb
REMARK                            x       y       z     vdW  Elec       q    Type
REMARK                         _______ _______ _______ _____ _____    ______ ____
ROOT
ATOM      1  O   HOH    1       29.181  19.068   0.000  0.00  0.00    -0.410 OA
ATOM      2  H   HOH    0       30.198  19.651   0.000  0.00  0.00    +0.205 HD
ATOM      3  H   HOH    0       28.730  18.355   0.000  0.00  0.00    +0.205 HD
ENDROOT
TORSDOF 0
REMARK  Name = molecules/XVVOERDUTLJJHN-IAEQDCLQSA-N.pdb
REMARK                            x       y       z     vdW  Elec       q    Type
REMARK                         _______ _______ _______ _____ _____    ______ ____
ROOT
ATOM      1  O   HOH    1       27.310  14.492   0.000  0.00  0.00    -0.410 OA
ATOM      2  H   HOH    0       28.508  15.103   0.000  0.00  0.00    +0.205 HD
ATOM      3  H   HOH    0       26.597  14.677   0.000  0.00  0.00    +0.205 HD
ENDROOT
TORSDOF 0
REMARK  Name = molecules/XVVOERDUTLJJHN-IAEQDCLQSA-N.pdb
REMARK                            x       y       z     vdW  Elec       q    Type
REMARK                         _______ _______ _______ _____ _____    ______ ____
ROOT
ATOM      1  C   LIG    1       22.949  14.332   0.000  0.00  0.00    +0.004 C 
ATOM      2  C   LIG    1       22.298  14.755   0.000  0.00  0.00    -0.004 C 
ENDROOT
TORSDOF 0
REMARK  Name = molecules/XVVOERDUTLJJHN-IAEQDCLQSA-N.pdb
REMARK                            x       y       z     vdW  Elec       q    Type
REMARK                         _______ _______ _______ _____ _____    ______ ____
ROOT
ATOM      1  O   HOH    1       23.002  15.831   0.000  0.00  0.00    -0.410 OA
ATOM      2  H   HOH    0       23.835  16.410   0.000  0.00  0.00    +0.205 HD
ATOM      3  H   HOH    0       22.831  16.540   0.000  0.00  0.00    +0.205 HD
ENDROOT
TORSDOF 0
REMARK  Name = molecules/XVVOERDUTLJJHN-IAEQDCLQSA-N.pdb
REMARK                            x       y       z     vdW  Elec       q    Type
REMARK                         _______ _______ _______ _____ _____    ______ ____
ROOT
ATOM      1  C   LIG    1       21.335  16.645   0.000  0.00  0.00    -0.000 C 
ENDROOT
TORSDOF 0
REMARK  Name = molecules/XVVOERDUTLJJHN-IAEQDCLQSA-N.pdb
REMARK                            x       y       z     vdW  Elec       q    Type
REMARK                         _______ _______ _______ _____ _____    ______ ____
ROOT
ATOM      1  O   HOH    1       21.076  11.381   0.000  0.00  0.00    -0.410 OA
ATOM      2  H   HOH    0       22.146  11.861   0.000  0.00  0.00    +0.205 HD
ATOM      3  H   HOH    0       20.235  11.435   0.000  0.00  0.00    +0.205 HD
ENDROOT
TORSDOF 0
REMARK  Name = molecules/XVVOERDUTLJJHN-IAEQDCLQSA-N.pdb
REMARK                            x       y       z     vdW  Elec       q    Type
REMARK                         _______ _______ _______ _____ _____    ______ ____
ROOT
ATOM      1  O   HOH    1       16.456  12.585   0.000  0.00  0.00    -0.410 OA
ATOM      2  H   HOH    0       17.473  13.168   0.000  0.00  0.00    +0.205 HD
ATOM      3  H   HOH    0       16.006  11.872   0.000  0.00  0.00    +0.205 HD
ENDROOT
TORSDOF 0
REMARK  Name = molecules/XVVOERDUTLJJHN-IAEQDCLQSA-N.pdb
REMARK                            x       y       z     vdW  Elec       q    Type
REMARK                         _______ _______ _______ _____ _____    ______ ____
ROOT
ATOM      1  O   HOH    1       14.586   8.009   0.000  0.00  0.00    -0.410 OA
ATOM      2  H   HOH    0       15.131   8.880   0.000  0.00  0.00    +0.205 HD
ATOM      3  H   HOH    0       13.873   8.194   0.000  0.00  0.00    +0.205 HD
ENDROOT
TORSDOF 0
REMARK  Name = molecules/XVVOERDUTLJJHN-IAEQDCLQSA-N.pdb
REMARK                            x       y       z     vdW  Elec       q    Type
REMARK                         _______ _______ _______ _____ _____    ______ ____
ROOT
ATOM      1  C   LIG    1       13.078   6.921   0.000  0.00  0.00    +0.040 C 
ATOM      2  C   LIG    1       14.505   6.458   0.000  0.00  0.00    -0.047 C 
ATOM      3  C   LIG    1       14.816   4.991   0.000  0.00  0.00    -0.015 C 
ENDROOT
BRANCH   3   4
ATOM      4  C   LIG    1       16.243   4.527   0.000  0.00  0.00    +0.045 C 
BRANCH   4   5
ATOM      5  C   LIG    1       17.358   5.531   0.000  0.00  0.00    -0.018 C 
ATOM      6  C   LIG    1       17.046   6.998   0.000  0.00  0.00    -0.004 C 
ENDBRANCH   4   5
ENDBRANCH   3   4
TORSDOF 2
REMARK  Name = molecules/XVVOERDUTLJJHN-IAEQDCLQSA-N.pdb
REMARK                            x       y       z     vdW  Elec       q    Type
REMARK                         _______ _______ _______ _____ _____    ______ ____
ROOT
ATOM      1  C   LIG    1       15.619   7.462   0.000  0.00  0.00    +0.000 C 
ENDROOT
TORSDOF 0
REMARK  Name = molecules/XVVOERDUTLJJHN-IAEQDCLQSA-N.pdb
REMARK                            x       y       z     vdW  Elec       q    Type
REMARK                         _______ _______ _______ _____ _____    ______ ____
ROOT
ATOM      1  O   HOH    1       10.094   9.343   0.000  0.00  0.00    -0.410 OA
ATOM      2  H   HOH    0        9.643   8.630   0.000  0.00  0.00    +0.205 HD
ATOM      3  H   HOH    0       11.111   9.926   0.000  0.00  0.00    +0.205 HD
ENDROOT
TORSDOF 0
REMARK  Name = molecules/XVVOERDUTLJJHN-IAEQDCLQSA-N.pdb
REMARK                            x       y       z     vdW  Elec       q    Type
REMARK                         _______ _______ _______ _____ _____    ______ ____
ROOT
ATOM      1  C   LIG    1        7.220   5.882   0.000  0.00  0.00    +0.000 C 
ATOM      2  C   LIG    1        8.165   5.005   0.000  0.00  0.00    +0.000 C 
ENDROOT
TORSDOF 0
REMARK  Name = molecules/XVVOERDUTLJJHN-IAEQDCLQSA-N.pdb
REMARK                            x       y       z     vdW  Elec       q    Type
REMARK                         _______ _______ _______ _____ _____    ______ ____
ROOT
ATOM      1  C   LIG    1        8.147   8.735   0.000  0.00  0.00    +0.000 C 
ENDROOT
TORSDOF 0
REMARK  Name = molecules/XVVOERDUTLJJHN-IAEQDCLQSA-N.pdb
REMARK                            x       y       z     vdW  Elec       q    Type
REMARK                         _______ _______ _______ _____ _____    ______ ____
ROOT
ATOM      1  C   LIG    1        8.611  10.162   0.000  0.00  0.00    -0.000 C 
ENDROOT
TORSDOF 0
REMARK  Name = molecules/XVVOERDUTLJJHN-IAEQDCLQSA-N.pdb
REMARK                            x       y       z     vdW  Elec       q    Type
REMARK                         _______ _______ _______ _____ _____    ______ ____
ROOT
ATOM      1  C   LIG    1        7.684   7.308   0.000  0.00  0.00    +0.000 C 
ATOM      2  C   LIG    1        7.123   8.011   0.000  0.00  0.00    +0.000 C 
ENDROOT
TORSDOF 0
REMARK  Name = molecules/XVVOERDUTLJJHN-IAEQDCLQSA-N.pdb
REMARK                            x       y       z     vdW  Elec       q    Type
REMARK                         _______ _______ _______ _____ _____    ______ ____
ROOT
ATOM      1  C   LIG    1        5.294   9.662   0.000  0.00  0.00    -0.005 C 
ATOM      2  C   LIG    1        6.120   9.126   0.000  0.00  0.00    +0.005 C 
ENDROOT
TORSDOF 0
REMARK  Name = molecules/XVVOERDUTLJJHN-IAEQDCLQSA-N.pdb
REMARK                            x       y       z     vdW  Elec       q    Type
REMARK                         _______ _______ _______ _____ _____    ______ ____
ROOT
ATOM      1  C   LIG    1        6.720   9.198   0.000  0.00  0.00    -0.000 C 
ENDROOT
TORSDOF 0
REMARK  Name = molecules/XVVOERDUTLJJHN-IAEQDCLQSA-N.pdb
REMARK                            x       y       z     vdW  Elec       q    Type
REMARK                         _______ _______ _______ _____ _____    ______ ____
ROOT
ATOM      1  O   HOH    1        8.464   5.043   0.000  0.00  0.00    -0.253 OA
ATOM      2  H   HOH    0        7.914   4.582   0.000  0.00  0.00    +0.253 HD
ENDROOT
TORSDOF 0
REMARK  Name = molecules/XVVOERDUTLJJHN-IAEQDCLQSA-N.pdb
REMARK                            x       y       z     vdW  Elec       q    Type
REMARK                         _______ _______ _______ _____ _____    ______ ____
ROOT
ATOM      1  C   LIG    1        3.863   4.607   0.000  0.00  0.00    +0.000 C 
ATOM      2  C   LIG    1        3.497   5.449   0.000  0.00  0.00    +0.000 C 
ENDROOT
TORSDOF 0
REMARK  Name = molecules/XVVOERDUTLJJHN-IAEQDCLQSA-N.pdb
REMARK                            x       y       z     vdW  Elec       q    Type
REMARK                         _______ _______ _______ _____ _____    ______ ____
ROOT
ATOM      1  N   LIG    1        7.660   2.631   0.000  0.00  0.00    -0.332 N 
ATOM      2  H   LIG    1        8.221   1.718   0.000  0.00  0.00    +0.147 HD
ENDROOT
BRANCH   1   3
ATOM      3  C   LIG    1        6.716   3.680   0.000  0.00  0.00    +0.049 C 
ATOM      4  C   LIG    1        6.673   4.848   0.000  0.00  0.00    +0.026 C 
ENDBRANCH   1   3
BRANCH   1   5
ATOM      5  C   LIG    1        8.142   3.216   0.000  0.00  0.00    +0.083 C 
BRANCH   5   6
ATOM      6  C   LIG    1        8.775   3.635   0.000  0.00  0.00    +0.030 C 
BRANCH   6   7
ATOM      7  C   LIG    1        9.569   2.753   0.000  0.00  0.00    -0.003 C 
ATOM      8  C   LIG    1       10.267   3.478   0.000  0.00  0.00    -0.000 C 
ENDBRANCH   6   7
ENDBRANCH   5   6
ENDBRANCH   1   5
TORSDOF 4
REMARK  Name = molecules/XVVOERDUTLJJHN-IAEQDCLQSA-N.pdb
REMARK                            x       y       z     vdW  Elec       q    Type
REMARK                         _______ _______ _______ _____ _____    ______ ____
ROOT
ATOM      1  O   LIG    1       10.684   3.756   0.000  0.00  0.00    -0.279 OA
ATOM      2  C   LIG    1       11.148   4.692   0.000  0.00  0.00    +0.279 C 
ENDROOT
TORSDOF 0
REMARK  Name = molecules/XVVOERDUTLJJHN-IAEQDCLQSA-N.pdb
REMARK                            x       y       z     vdW  Elec       q    Type
REMARK                         _______ _______ _______ _____ _____    ______ ____
ROOT
ATOM      1  O   HOH    1        9.881   1.286   0.000  0.00  0.00    -0.253 OA
ATOM      2  H   HOH    0       10.877   2.108   0.000  0.00  0.00    +0.253 HD
ENDROOT
TORSDOF 0
REMARK  Name = molecules/XVVOERDUTLJJHN-IAEQDCLQSA-N.pdb
REMARK                            x       y       z     vdW  Elec       q    Type
REMARK                         _______ _______ _______ _____ _____    ______ ____
ROOT
ATOM      1  C   LIG    1        5.289   4.143   0.000  0.00  0.00    +0.000 C 
ENDROOT
TORSDOF 0
REMARK  Name = molecules/XVVOERDUTLJJHN-IAEQDCLQSA-N.pdb
REMARK                            x       y       z     vdW  Elec       q    Type
REMARK                         _______ _______ _______ _____ _____    ______ ____
ROOT
ATOM      1  O   LIG    1        2.748   3.603   0.000  0.00  0.00    -0.379 OA
ATOM      2  C   LIG    1        2.283   4.568   0.000  0.00  0.00    +0.169 C 
ATOM      3  H   LIG    1        2.073   3.239   0.000  0.00  0.00    +0.211 HD
ENDROOT
TORSDOF 0
REMARK  Name = molecules/XVVOERDUTLJJHN-IAEQDCLQSA-N.pdb
REMARK                            x       y       z     vdW  Elec       q    Type
REMARK                         _______ _______ _______ _____ _____    ______ ____
ROOT
ATOM      1  C   LIG    1        3.662   8.193   0.000  0.00  0.00    +0.000 C 
ENDROOT
TORSDOF 0
REMARK  Name = molecules/XVVOERDUTLJJHN-IAEQDCLQSA-N.pdb
REMARK                            x       y       z     vdW  Elec       q    Type
REMARK                         _______ _______ _______ _____ _____    ______ ____
ROOT
ATOM      1  C   LIG    1        6.361   3.381   0.000  0.00  0.00    +0.000 C 
ENDROOT
TORSDOF 0
REMARK  Name = molecules/XVVOERDUTLJJHN-IAEQDCLQSA-N.pdb
REMARK                            x       y       z     vdW  Elec       q    Type
REMARK                         _______ _______ _______ _____ _____    ______ ____
ROOT
ATOM      1  C   LIG    1        9.046   6.219   0.000  0.00  0.00    +0.000 C 
ENDROOT
TORSDOF 0
REMARK  Name = molecules/XVVOERDUTLJJHN-IAEQDCLQSA-N.pdb
REMARK                            x       y       z     vdW  Elec       q    Type
REMARK                         _______ _______ _______ _____ _____    ______ ____
ROOT
ATOM      1  C   LIG    1       10.538   6.062   0.000  0.00  0.00    +0.000 C 
ENDROOT
TORSDOF 0
REMARK  Name = molecules/XVVOERDUTLJJHN-IAEQDCLQSA-N.pdb
REMARK                            x       y       z     vdW  Elec       q    Type
REMARK                         _______ _______ _______ _____ _____    ______ ____
ROOT
ATOM      1  O   HOH    1        3.948   9.665   0.000  0.00  0.00    +0.000 OA
ENDROOT
TORSDOF 0
REMARK  Name = molecules/XVVOERDUTLJJHN-IAEQDCLQSA-N.pdb
REMARK                            x       y       z     vdW  Elec       q    Type
REMARK                         _______ _______ _______ _____ _____    ______ ____
ROOT
ATOM      1  C   LIG    1        2.306   9.999   0.000  0.00  0.00    +0.000 C 
ENDROOT
TORSDOF 0
REMARK  Name = molecules/XVVOERDUTLJJHN-IAEQDCLQSA-N.pdb
REMARK                            x       y       z     vdW  Elec       q    Type
REMARK                         _______ _______ _______ _____ _____    ______ ____
ROOT
ATOM      1  C   LIG    1       -2.153   5.984   0.000  0.00  0.00    +0.000 C 
ENDROOT
TORSDOF 0
REMARK  Name = molecules/XVVOERDUTLJJHN-IAEQDCLQSA-N.pdb
REMARK                            x       y       z     vdW  Elec       q    Type
REMARK                         _______ _______ _______ _____ _____    ______ ____
ROOT
ATOM      1  O   HOH    1        3.778   9.713   0.000  0.00  0.00    -0.253 OA
ATOM      2  H   HOH    0        3.128  10.223   0.000  0.00  0.00    +0.253 HD
ENDROOT
TORSDOF 0
REMARK  Name = molecules/XVVOERDUTLJJHN-IAEQDCLQSA-N.pdb
REMARK                            x       y       z     vdW  Elec       q    Type
REMARK                         _______ _______ _______ _____ _____    ______ ____
ROOT
ATOM      1  C   LIG    1        5.116  10.241   0.000  0.00  0.00    +0.000 C 
ENDROOT
TORSDOF 0
REMARK  Name = molecules/XVVOERDUTLJJHN-IAEQDCLQSA-N.pdb
REMARK                            x       y       z     vdW  Elec       q    Type
REMARK                         _______ _______ _______ _____ _____    ______ ____
ROOT
ATOM      1  C   LIG    1        4.112  11.355   0.000  0.00  0.00    +0.000 C 
ENDROOT
TORSDOF 0
REMARK  Name = molecules/XVVOERDUTLJJHN-IAEQDCLQSA-N.pdb
REMARK                            x       y       z     vdW  Elec       q    Type
REMARK                         _______ _______ _______ _____ _____    ______ ____
ROOT
ATOM      1  C   LIG    1       -6.862  12.035   0.000  0.00  0.00    +0.000 C 
ENDROOT
TORSDOF 0
REMARK  Name = molecules/XVVOERDUTLJJHN-IAEQDCLQSA-N.pdb
REMARK                            x       y       z     vdW  Elec       q    Type
REMARK                         _______ _______ _______ _____ _____    ______ ____
ROOT
ATOM      1  O   HOH    1       -8.222  12.668   0.000  0.00  0.00    +0.000 OA
ENDROOT
TORSDOF 0
REMARK  Name = molecules/XVVOERDUTLJJHN-IAEQDCLQSA-N.pdb
REMARK                            x       y       z     vdW  Elec       q    Type
REMARK                         _______ _______ _______ _____ _____    ______ ____
ROOT
ATOM      1  C   LIG    1       -5.180   9.957   0.000  0.00  0.00    +0.010 C 
ATOM      2  C   LIG    1       -6.057  10.332   0.000  0.00  0.00    -0.010 C 
ENDROOT
TORSDOF 0
REMARK  Name = molecules/XVVOERDUTLJJHN-IAEQDCLQSA-N.pdb
REMARK                            x       y       z     vdW  Elec       q    Type
REMARK                         _______ _______ _______ _____ _____    ______ ____
ROOT
ATOM      1  O   HOH    1       -8.271  12.040   0.000  0.00  0.00    -0.253 OA
ATOM      2  H   HOH    0       -8.078  10.863   0.000  0.00  0.00    +0.253 HD
ENDROOT
TORSDOF 0
REMARK  Name = molecules/XVVOERDUTLJJHN-IAEQDCLQSA-N.pdb
REMARK                            x       y       z     vdW  Elec       q    Type
REMARK                         _______ _______ _______ _____ _____    ______ ____
ROOT
ATOM      1  C   LIG    1       -9.062   8.365   0.000  0.00  0.00    -0.000 C 
ENDROOT
TORSDOF 0
REMARK  Name = molecules/XVVOERDUTLJJHN-IAEQDCLQSA-N.pdb
REMARK                            x       y       z     vdW  Elec       q    Type
REMARK                         _______ _______ _______ _____ _____    ______ ____
ROOT
ATOM      1  C   LIG    1      -11.915   9.292   0.000  0.00  0.00    +0.232 C 
ATOM      2  O   LIG    1      -13.342   9.756   0.000  0.00  0.00    -0.232 OA
ENDROOT
TORSDOF 0
REMARK  Name = molecules/XVVOERDUTLJJHN-IAEQDCLQSA-N.pdb
REMARK                            x       y       z     vdW  Elec       q    Type
REMARK                         _______ _______ _______ _____ _____    ______ ____
ROOT
ATOM      1  C   LIG    1      -10.488   8.829   0.000  0.00  0.00    +0.000 C 
ENDROOT
TORSDOF 0
REMARK  Name = molecules/XVVOERDUTLJJHN-IAEQDCLQSA-N.pdb
REMARK                            x       y       z     vdW  Elec       q    Type
REMARK                         _______ _______ _______ _____ _____    ______ ____
ROOT
ATOM      1  O   HOH    1       -9.648   6.985   0.000  0.00  0.00    +0.000 OA
ENDROOT
TORSDOF 0
REMARK  Name = molecules/XVVOERDUTLJJHN-IAEQDCLQSA-N.pdb
REMARK                            x       y       z     vdW  Elec       q    Type
REMARK                         _______ _______ _______ _____ _____    ______ ____
ROOT
ATOM      1  O   HOH    1       -6.124   6.250   0.000  0.00  0.00    -0.410 OA
ATOM      2  H   HOH    0       -5.180   6.974   0.000  0.00  0.00    +0.205 HD
ATOM      3  H   HOH    0       -6.488   5.137   0.000  0.00  0.00    +0.205 HD
ENDROOT
TORSDOF 0
REMARK  Name = molecules/XVVOERDUTLJJHN-IAEQDCLQSA-N.pdb
REMARK                            x       y       z     vdW  Elec       q    Type
REMARK                         _______ _______ _______ _____ _____    ______ ____
ROOT
ATOM      1  C   LIG    1       -9.378   4.314   0.000  0.00  0.00    +0.000 C 
ENDROOT
TORSDOF 0
REMARK  Name = molecules/XVVOERDUTLJJHN-IAEQDCLQSA-N.pdb
REMARK                            x       y       z     vdW  Elec       q    Type
REMARK                         _______ _______ _______ _____ _____    ______ ____
ROOT
ATOM      1  O   HOH    1       -8.518   3.085   0.000  0.00  0.00    -0.253 OA
ATOM      2  H   HOH    0       -9.013   3.528   0.000  0.00  0.00    +0.253 HD
ENDROOT
TORSDOF 0
REMARK  Name = molecules/XVVOERDUTLJJHN-IAEQDCLQSA-N.pdb
REMARK                            x       y       z     vdW  Elec       q    Type
REMARK                         _______ _______ _______ _____ _____    ______ ____
ROOT
ATOM      1  O   LIG    1       -8.899   3.244   0.000  0.00  0.00    -0.038 OA
ATOM      2  O   LIG    1       -8.869   2.445   0.000  0.00  0.00    -0.218 OA
ATOM      3  H   LIG    1       -8.230   2.469   0.000  0.00  0.00    +0.256 HD
ENDROOT
TORSDOF 0
REMARK  Name = molecules/XVVOERDUTLJJHN-IAEQDCLQSA-N.pdb
REMARK                            x       y       z     vdW  Elec       q    Type
REMARK                         _______ _______ _______ _____ _____    ______ ____
ROOT
ATOM      1  C   LIG    1       -9.824  -1.769   0.000  0.00  0.00    -0.000 C 
ENDROOT
TORSDOF 0
REMARK  Name = molecules/XVVOERDUTLJJHN-IAEQDCLQSA-N.pdb
REMARK                            x       y       z     vdW  Elec       q    Type
REMARK                         _______ _______ _______ _____ _____    ______ ____
ROOT
ATOM      1  C   LIG    1       -4.273  -0.444   0.000  0.00  0.00    +0.000 C 
ENDROOT
TORSDOF 0
REMARK  Name = molecules/XVVOERDUTLJJHN-IAEQDCLQSA-N.pdb
REMARK                            x       y       z     vdW  Elec       q    Type
REMARK                         _______ _______ _______ _____ _____    ______ ____
ROOT
ATOM      1  C   LIG    1       -5.155   0.769   0.000  0.00  0.00    +0.000 C 
ENDROOT
TORSDOF 0
REMARK  Name = molecules/XVVOERDUTLJJHN-IAEQDCLQSA-N.pdb
REMARK                            x       y       z     vdW  Elec       q    Type
REMARK                         _______ _______ _______ _____ _____    ______ ____
ROOT
ATOM      1  C   LIG    1       -3.856   1.519   0.000  0.00  0.00    -0.005 C 
ATOM      2  C   LIG    1       -2.571   1.041   0.000  0.00  0.00    +0.005 C 
ENDROOT
TORSDOF 0
REMARK  Name = molecules/XVVOERDUTLJJHN-IAEQDCLQSA-N.pdb
REMARK                            x       y       z     vdW  Elec       q    Type
REMARK                         _______ _______ _______ _____ _____    ______ ____
ROOT
ATOM      1  C   LIG    1       -5.660   3.143   0.000  0.00  0.00    +0.012 C 
ATOM      2  C   LIG    1       -6.037   1.983   0.000  0.00  0.00    -0.013 C 
ATOM      3  C   LIG    1       -6.918   3.196   0.000  0.00  0.00    +0.001 C 
ENDROOT
TORSDOF 0
REMARK  Name = molecules/XVVOERDUTLJJHN-IAEQDCLQSA-N.pdb
REMARK                            x       y       z     vdW  Elec       q    Type
REMARK                         _______ _______ _______ _____ _____    ______ ____
ROOT
ATOM      1  C   LIG    1       -2.788  -2.146   0.000  0.00  0.00    +0.279 C 
ATOM      2  O   LIG    1       -2.422  -1.342   0.000  0.00  0.00    -0.279 OA
ENDROOT
TORSDOF 0
REMARK  Name = molecules/XVVOERDUTLJJHN-IAEQDCLQSA-N.pdb
REMARK                            x       y       z     vdW  Elec       q    Type
REMARK                         _______ _______ _______ _____ _____    ______ ____
ROOT
ATOM      1  C   LIG    1        1.070   3.686   0.000  0.00  0.00    +0.000 C 
ENDROOT
TORSDOF 0
REMARK  Name = molecules/XVVOERDUTLJJHN-IAEQDCLQSA-N.pdb
REMARK                            x       y       z     vdW  Elec       q    Type
REMARK                         _______ _______ _______ _____ _____    ______ ____
ROOT
ATOM      1  C   LIG    1       -0.144   2.804   0.000  0.00  0.00    +0.000 C 
ENDROOT
TORSDOF 0
REMARK  Name = molecules/XVVOERDUTLJJHN-IAEQDCLQSA-N.pdb
REMARK                            x       y       z     vdW  Elec       q    Type
REMARK                         _______ _______ _______ _____ _____    ______ ____
ROOT
ATOM      1  C   LIG    1       -1.357   1.923   0.000  0.00  0.00    +0.000 C 
ENDROOT
TORSDOF 0
REMARK  Name = molecules/XVVOERDUTLJJHN-IAEQDCLQSA-N.pdb
REMARK                            x       y       z     vdW  Elec       q    Type
REMARK                         _______ _______ _______ _____ _____    ______ ____
ROOT
ATOM      1  O   LIG    1       -4.399  -1.610   0.000  0.00  0.00    -0.190 OA
ENDROOT
BRANCH   1   2
ATOM      2  C   LIG    1       -4.273  -0.444   0.000  0.00  0.00    +0.177 C 
ATOM      3  C   LIG    1       -5.155   0.769   0.000  0.00  0.00    +0.048 C 
ENDBRANCH   1   2
BRANCH   1   4
ATOM      4  O   LIG    1       -4.973  -2.045   0.000  0.00  0.00    -0.032 OA
ATOM      5  O   LIG    1       -5.334  -1.505   0.000  0.00  0.00    -0.002 OA
ENDBRANCH   1   4
TORSDOF 2
REMARK  Name = molecules/XVVOERDUTLJJHN-IAEQDCLQSA-N.pdb
REMARK                            x       y       z     vdW  Elec       q    Type
REMARK                         _______ _______ _______ _____ _____    ______ ____
ROOT
ATOM      1  C   LIG    1       -7.800   4.410   0.000  0.00  0.00    +0.005 C 
ATOM      2  C   LIG    1       -8.682   5.623   0.000  0.00  0.00    -0.005 C 
ENDROOT
TORSDOF 0
REMARK  Name = molecules/XVVOERDUTLJJHN-IAEQDCLQSA-N.pdb
REMARK                            x       y       z     vdW  Elec       q    Type
REMARK                         _______ _______ _______ _____ _____    ______ ____
ROOT
ATOM      1  C   LIG    1        1.741   1.144   0.000  0.00  0.00    +0.000 C 
ENDROOT
TORSDOF 0
REMARK  Name = molecules/XVVOERDUTLJJHN-IAEQDCLQSA-N.pdb
REMARK                            x       y       z     vdW  Elec       q    Type
REMARK                         _______ _______ _______ _____ _____    ______ ____
ROOT
ATOM      1  N   LIG    1        4.168   2.908   0.000  0.00  0.00    -0.344 NA
ATOM      2  H   LIG    1        5.185   2.647   0.000  0.00  0.00    +0.115 HD
ATOM      3  H   LIG    1        4.058   4.059   0.000  0.00  0.00    +0.115 HD
ATOM      4  H   LIG    1        3.010   3.256   0.000  0.00  0.00    +0.115 HD
ENDROOT
TORSDOF 0
REMARK  Name = molecules/XVVOERDUTLJJHN-IAEQDCLQSA-N.pdb
REMARK                            x       y       z     vdW  Elec       q    Type
REMARK                         _______ _______ _______ _____ _____    ______ ____
ROOT
ATOM      1  C   LIG    1        2.954   2.026   0.000  0.00  0.00    +0.000 C 
ENDROOT
TORSDOF 0
REMARK  Name = molecules/XVVOERDUTLJJHN-IAEQDCLQSA-N.pdb
REMARK                            x       y       z     vdW  Elec       q    Type
REMARK                         _______ _______ _______ _____ _____    ______ ____
ROOT
ATOM      1  C   LIG    1       -1.525  -8.397   0.000  0.00  0.00    +0.018 C 
ENDROOT
BRANCH   1   2
ATOM      2  C   LIG    1       -0.643  -9.610   0.000  0.00  0.00    +0.124 C 
ATOM      3  N   LIG    1        0.238 -10.824   0.000  0.00  0.00    -0.143 NA
ENDBRANCH   1   2
BRANCH   1   4
ATOM      4  C   LIG    1       -2.407  -7.183   0.000  0.00  0.00    +0.001 C 
ATOM      5  C   LIG    1       -3.288  -5.970   0.000  0.00  0.00    +0.000 C 
ENDBRANCH   1   4
TORSDOF 2
REMARK  Name = molecules/XVVOERDUTLJJHN-IAEQDCLQSA-N.pdb
REMARK                            x       y       z     vdW  Elec       q    Type
REMARK                         _______ _______ _______ _____ _____    ______ ____
ROOT
ATOM      1  C   LIG    1      -11.066  -5.131   0.000  0.00  0.00    +0.020 C 
ATOM      2  C   LIG    1      -12.279  -6.013   0.000  0.00  0.00    +0.124 C 
ATOM      3  N   LIG    1      -13.493  -6.894   0.000  0.00  0.00    -0.143 NA
ENDROOT
TORSDOF 0
REMARK  Name = molecules/XVVOERDUTLJJHN-IAEQDCLQSA-N.pdb
REMARK                            x       y       z     vdW  Elec       q    Type
REMARK                         _______ _______ _______ _____ _____    ______ ____
ROOT
ATOM      1  C   LIG    1       -9.852  -4.249   0.000  0.00  0.00    +0.000 C 
ENDROOT
TORSDOF 0
REMARK  Name = molecules/XVVOERDUTLJJHN-IAEQDCLQSA-N.pdb
REMARK                            x       y       z     vdW  Elec       q    Type
REMARK                         _______ _______ _______ _____ _____    ______ ____
ROOT
ATOM      1  C   LIG    1       -8.639  -3.368   0.000  0.00  0.00    +0.000 C 
ENDROOT
TORSDOF 0
REMARK  Name = molecules/XVVOERDUTLJJHN-IAEQDCLQSA-N.pdb
REMARK                            x       y       z     vdW  Elec       q    Type
REMARK                         _______ _______ _______ _____ _____    ______ ____
ROOT
ATOM      1  H   UNK    1       67.103  26.636   0.000  0.00  0.00    +0.000 HD
ENDROOT
TORSDOF 0
REMARK  Name = molecules/XVVOERDUTLJJHN-IAEQDCLQSA-N.pdb
REMARK                            x       y       z     vdW  Elec       q    Type
REMARK                         _______ _______ _______ _____ _____    ______ ____
ROOT
ATOM      1  H   UNK    1       67.843  28.915   0.000  0.00  0.00    +0.000 HD
ENDROOT
TORSDOF 0
REMARK  Name = molecules/XVVOERDUTLJJHN-IAEQDCLQSA-N.pdb
REMARK                            x       y       z     vdW  Elec       q    Type
REMARK                         _______ _______ _______ _____ _____    ______ ____
ROOT
ATOM      1  H   UNK    1       72.693  27.657   0.000  0.00  0.00    +0.000 HD
ENDROOT
TORSDOF 0
REMARK  Name = molecules/XVVOERDUTLJJHN-IAEQDCLQSA-N.pdb
REMARK                            x       y       z     vdW  Elec       q    Type
REMARK                         _______ _______ _______ _____ _____    ______ ____
ROOT
ATOM      1  H   UNK    1       70.145  32.427   0.000  0.00  0.00    +0.000 HD
ENDROOT
TORSDOF 0
REMARK  Name = molecules/XVVOERDUTLJJHN-IAEQDCLQSA-N.pdb
REMARK                            x       y       z     vdW  Elec       q    Type
REMARK                         _______ _______ _______ _____ _____    ______ ____
ROOT
ATOM      1  H   UNK    1       71.452  37.100   0.000  0.00  0.00    +0.000 HD
ENDROOT
TORSDOF 0
REMARK  Name = molecules/XVVOERDUTLJJHN-IAEQDCLQSA-N.pdb
REMARK                            x       y       z     vdW  Elec       q    Type
REMARK                         _______ _______ _______ _____ _____    ______ ____
ROOT
ATOM      1  H   UNK    1       49.284  29.376   0.000  0.00  0.00    +0.000 HD
ENDROOT
TORSDOF 0
REMARK  Name = molecules/XVVOERDUTLJJHN-IAEQDCLQSA-N.pdb
REMARK                            x       y       z     vdW  Elec       q    Type
REMARK                         _______ _______ _______ _____ _____    ______ ____
ROOT
ATOM      1  H   UNK    1        1.561   6.521   0.000  0.00  0.00    +0.000 HD
ENDROOT
TORSDOF 0
REMARK  Name = molecules/XVVOERDUTLJJHN-IAEQDCLQSA-N.pdb
REMARK                            x       y       z     vdW  Elec       q    Type
REMARK                         _______ _______ _______ _____ _____    ______ ____
ROOT
ATOM      1  H   UNK    1        4.063  15.142   0.000  0.00  0.00    +0.000 HD
ENDROOT
TORSDOF 0
REMARK  Name = molecules/XVVOERDUTLJJHN-IAEQDCLQSA-N.pdb
REMARK                            x       y       z     vdW  Elec       q    Type
REMARK                         _______ _______ _______ _____ _____    ______ ____
ROOT
ATOM      1  H   UNK    1       -1.289  17.053   0.000  0.00  0.00    +0.000 HD
ENDROOT
TORSDOF 0
REMARK  Name = molecules/XVVOERDUTLJJHN-IAEQDCLQSA-N.pdb
REMARK                            x       y       z     vdW  Elec       q    Type
REMARK                         _______ _______ _______ _____ _____    ______ ____
ROOT
ATOM      1  H   UNK    1       -4.945  15.509   0.000  0.00  0.00    +0.000 HD
ENDROOT
TORSDOF 0
REMARK  Name = molecules/XVVOERDUTLJJHN-IAEQDCLQSA-N.pdb
REMARK                            x       y       z     vdW  Elec       q    Type
REMARK                         _______ _______ _______ _____ _____    ______ ____
ROOT
ATOM      1  H   UNK    1      -10.885  11.484   0.000  0.00  0.00    +0.000 HD
ENDROOT
TORSDOF 0
REMARK  Name = molecules/XVVOERDUTLJJHN-IAEQDCLQSA-N.pdb
REMARK                            x       y       z     vdW  Elec       q    Type
REMARK                         _______ _______ _______ _____ _____    ______ ____
ROOT
ATOM      1  H   UNK    1      -11.706   5.231   0.000  0.00  0.00    +0.000 HD
ENDROOT
TORSDOF 0
REMARK  Name = molecules/XVVOERDUTLJJHN-IAEQDCLQSA-N.pdb
REMARK                            x       y       z     vdW  Elec       q    Type
REMARK                         _______ _______ _______ _____ _____    ______ ____
ROOT
ATOM      1  H   UNK    1       -6.274  -1.252   0.000  0.00  0.00    +0.000 HD
ENDROOT
TORSDOF 0
REMARK  Name = molecules/XVVOERDUTLJJHN-IAEQDCLQSA-N.pdb
REMARK                            x       y       z     vdW  Elec       q    Type
REMARK                         _______ _______ _______ _____ _____    ______ ____
ROOT
ATOM      1  H   UNK    1       -1.261  -4.248   0.000  0.00  0.00    +0.000 HD
ENDROOT
TORSDOF 0
REMARK  Name = molecules/XVVOERDUTLJJHN-IAEQDCLQSA-N.pdb
REMARK                            x       y       z     vdW  Elec       q    Type
REMARK                         _______ _______ _______ _____ _____    ______ ____
ROOT
ATOM      1  H   UNK    1       -1.586  -4.484   0.000  0.00  0.00    +0.000 HD
ENDROOT
TORSDOF 0
REMARK  Name = molecules/XVVOERDUTLJJHN-IAEQDCLQSA-N.pdb
REMARK                            x       y       z     vdW  Elec       q    Type
REMARK                         _______ _______ _______ _____ _____    ______ ____
ROOT
ATOM      1  H   UNK    1       -7.866  -0.034   0.000  0.00  0.00    +0.000 HD
ENDROOT
TORSDOF 0
REMARK  Name = molecules/XVVOERDUTLJJHN-IAEQDCLQSA-N.pdb
REMARK                            x       y       z     vdW  Elec       q    Type
REMARK                         _______ _______ _______ _____ _____    ______ ____
ROOT
ATOM      1  H   UNK    1       69.295  20.326   0.000  0.00  0.00    +0.000 HD
ENDROOT
TORSDOF 0
REMARK  Name = molecules/XVVOERDUTLJJHN-IAEQDCLQSA-N.pdb
REMARK                            x       y       z     vdW  Elec       q    Type
REMARK                         _______ _______ _______ _____ _____    ______ ____
ROOT
ATOM      1  H   UNK    1       78.094  30.845   0.000  0.00  0.00    +0.000 HD
ENDROOT
TORSDOF 0
REMARK  Name = molecules/XVVOERDUTLJJHN-IAEQDCLQSA-N.pdb
REMARK                            x       y       z     vdW  Elec       q    Type
REMARK                         _______ _______ _______ _____ _____    ______ ____
ROOT
ATOM      1  H   UNK    1       63.492  39.792   0.000  0.00  0.00    +0.000 HD
ENDROOT
TORSDOF 0
REMARK  Name = molecules/XVVOERDUTLJJHN-IAEQDCLQSA-N.pdb
REMARK                            x       y       z     vdW  Elec       q    Type
REMARK                         _______ _______ _______ _____ _____    ______ ____
ROOT
ATOM      1  H   UNK    1       57.129  36.550   0.000  0.00  0.00    +0.000 HD
ENDROOT
TORSDOF 0
REMARK  Name = molecules/XVVOERDUTLJJHN-IAEQDCLQSA-N.pdb
REMARK                            x       y       z     vdW  Elec       q    Type
REMARK                         _______ _______ _______ _____ _____    ______ ____
ROOT
ATOM      1  H   UNK    1       59.352  27.683   0.000  0.00  0.00    +0.000 HD
ENDROOT
TORSDOF 0
REMARK  Name = molecules/XVVOERDUTLJJHN-IAEQDCLQSA-N.pdb
REMARK                            x       y       z     vdW  Elec       q    Type
REMARK                         _______ _______ _______ _____ _____    ______ ____
ROOT
ATOM      1  H   UNK    1       52.605  35.395   0.000  0.00  0.00    +0.000 HD
ENDROOT
TORSDOF 0
REMARK  Name = molecules/XVVOERDUTLJJHN-IAEQDCLQSA-N.pdb
REMARK                            x       y       z     vdW  Elec       q    Type
REMARK                         _______ _______ _______ _____ _____    ______ ____
ROOT
ATOM      1  H   UNK    1       50.907  19.809   0.000  0.00  0.00    +0.000 HD
ENDROOT
TORSDOF 0
REMARK  Name = molecules/XVVOERDUTLJJHN-IAEQDCLQSA-N.pdb
REMARK                            x       y       z     vdW  Elec       q    Type
REMARK                         _______ _______ _______ _____ _____    ______ ____
ROOT
ATOM      1  H   UNK    1       51.824  22.136   0.000  0.00  0.00    +0.000 HD
ENDROOT
TORSDOF 0
REMARK  Name = molecules/XVVOERDUTLJJHN-IAEQDCLQSA-N.pdb
REMARK                            x       y       z     vdW  Elec       q    Type
REMARK                         _______ _______ _______ _____ _____    ______ ____
ROOT
ATOM      1  H   UNK    1       40.345  30.338   0.000  0.00  0.00    +0.000 HD
ENDROOT
TORSDOF 0
REMARK  Name = molecules/XVVOERDUTLJJHN-IAEQDCLQSA-N.pdb
REMARK                            x       y       z     vdW  Elec       q    Type
REMARK                         _______ _______ _______ _____ _____    ______ ____
ROOT
ATOM      1  H   UNK    1       38.414  28.599   0.000  0.00  0.00    +0.000 HD
ENDROOT
TORSDOF 0
REMARK  Name = molecules/XVVOERDUTLJJHN-IAEQDCLQSA-N.pdb
REMARK                            x       y       z     vdW  Elec       q    Type
REMARK                         _______ _______ _______ _____ _____    ______ ____
ROOT
ATOM      1  H   UNK    1       33.983  27.096   0.000  0.00  0.00    +0.000 HD
ENDROOT
TORSDOF 0
REMARK  Name = molecules/XVVOERDUTLJJHN-IAEQDCLQSA-N.pdb
REMARK                            x       y       z     vdW  Elec       q    Type
REMARK                         _______ _______ _______ _____ _____    ______ ____
ROOT
ATOM      1  H   UNK    1       37.559  16.260   0.000  0.00  0.00    +0.000 HD
ENDROOT
TORSDOF 0
REMARK  Name = molecules/XVVOERDUTLJJHN-IAEQDCLQSA-N.pdb
REMARK                            x       y       z     vdW  Elec       q    Type
REMARK                         _______ _______ _______ _____ _____    ______ ____
ROOT
ATOM      1  H   UNK    1       30.091  23.052   0.000  0.00  0.00    +0.000 HD
ENDROOT
TORSDOF 0
REMARK  Name = molecules/XVVOERDUTLJJHN-IAEQDCLQSA-N.pdb
REMARK                            x       y       z     vdW  Elec       q    Type
REMARK                         _______ _______ _______ _____ _____    ______ ____
ROOT
ATOM      1  H   UNK    1       27.229  12.941   0.000  0.00  0.00    +0.000 HD
ENDROOT
TORSDOF 0
REMARK  Name = molecules/XVVOERDUTLJJHN-IAEQDCLQSA-N.pdb
REMARK                            x       y       z     vdW  Elec       q    Type
REMARK                         _______ _______ _______ _____ _____    ______ ____
ROOT
ATOM      1  H   UNK    1       24.032   7.305   0.000  0.00  0.00    +0.000 HD
ENDROOT
TORSDOF 0
REMARK  Name = molecules/XVVOERDUTLJJHN-IAEQDCLQSA-N.pdb
REMARK                            x       y       z     vdW  Elec       q    Type
REMARK                         _______ _______ _______ _____ _____    ______ ____
ROOT
ATOM      1  H   UNK    1       23.096  11.707   0.000  0.00  0.00    +0.000 HD
ENDROOT
TORSDOF 0
REMARK  Name = molecules/XVVOERDUTLJJHN-IAEQDCLQSA-N.pdb
REMARK                            x       y       z     vdW  Elec       q    Type
REMARK                         _______ _______ _______ _____ _____    ______ ____
ROOT
ATOM      1  H   UNK    1       27.376  10.316   0.000  0.00  0.00    +0.000 HD
ENDROOT
TORSDOF 0
REMARK  Name = molecules/XVVOERDUTLJJHN-IAEQDCLQSA-N.pdb
REMARK                            x       y       z     vdW  Elec       q    Type
REMARK                         _______ _______ _______ _____ _____    ______ ____
ROOT
ATOM      1  H   UNK    1        7.338  10.957   0.000  0.00  0.00    +0.000 HD
ENDROOT
TORSDOF 0
REMARK  Name = molecules/XVVOERDUTLJJHN-IAEQDCLQSA-N.pdb
REMARK                            x       y       z     vdW  Elec       q    Type
REMARK                         _______ _______ _______ _____ _____    ______ ____
ROOT
ATOM      1  H   UNK    1       12.110   3.293   0.000  0.00  0.00    +0.000 HD
ENDROOT
TORSDOF 0
REMARK  Name = molecules/XVVOERDUTLJJHN-IAEQDCLQSA-N.pdb
REMARK                            x       y       z     vdW  Elec       q    Type
REMARK                         _______ _______ _______ _____ _____    ______ ____
ROOT
ATOM      1  H   UNK    1        5.438   2.199   0.000  0.00  0.00    +0.000 HD
ENDROOT
TORSDOF 0
REMARK  Name = molecules/XVVOERDUTLJJHN-IAEQDCLQSA-N.pdb
REMARK                            x       y       z     vdW  Elec       q    Type
REMARK                         _______ _______ _______ _____ _____    ______ ____
ROOT
ATOM      1  H   UNK    1        7.634   1.131   0.000  0.00  0.00    +0.000 HD
ENDROOT
TORSDOF 0
REMARK  Name = molecules/XVVOERDUTLJJHN-IAEQDCLQSA-N.pdb
REMARK                            x       y       z     vdW  Elec       q    Type
REMARK                         _______ _______ _______ _____ _____    ______ ____
ROOT
ATOM      1  H   UNK    1       12.640   4.535   0.000  0.00  0.00    +0.000 HD
ENDROOT
TORSDOF 0
REMARK  Name = molecules/XVVOERDUTLJJHN-IAEQDCLQSA-N.pdb
REMARK                            x       y       z     vdW  Elec       q    Type
REMARK                         _______ _______ _______ _____ _____    ______ ____
ROOT
ATOM      1  H   UNK    1       -3.268   4.981   0.000  0.00  0.00    +0.000 HD
ENDROOT
TORSDOF 0
REMARK  Name = molecules/XVVOERDUTLJJHN-IAEQDCLQSA-N.pdb
REMARK                            x       y       z     vdW  Elec       q    Type
REMARK                         _______ _______ _______ _____ _____    ______ ____
ROOT
ATOM      1  H   UNK    1       -3.157   7.099   0.000  0.00  0.00    +0.000 HD
ENDROOT
TORSDOF 0
REMARK  Name = molecules/XVVOERDUTLJJHN-IAEQDCLQSA-N.pdb
REMARK                            x       y       z     vdW  Elec       q    Type
REMARK                         _______ _______ _______ _____ _____    ______ ____
ROOT
ATOM      1  H   UNK    1       -1.449   4.660   0.000  0.00  0.00    +0.000 HD
ENDROOT
TORSDOF 0
REMARK  Name = molecules/XVVOERDUTLJJHN-IAEQDCLQSA-N.pdb
REMARK                            x       y       z     vdW  Elec       q    Type
REMARK                         _______ _______ _______ _____ _____    ______ ____
ROOT
ATOM      1  H   UNK    1        1.290   6.577   0.000  0.00  0.00    +0.000 HD
ENDROOT
TORSDOF 0
REMARK  Name = molecules/XVVOERDUTLJJHN-IAEQDCLQSA-N.pdb
REMARK                            x       y       z     vdW  Elec       q    Type
REMARK                         _______ _______ _______ _____ _____    ______ ____
ROOT
ATOM      1  H   UNK    1        4.891   8.265   0.000  0.00  0.00    +0.000 HD
ENDROOT
TORSDOF 0
REMARK  Name = molecules/XVVOERDUTLJJHN-IAEQDCLQSA-N.pdb
REMARK                            x       y       z     vdW  Elec       q    Type
REMARK                         _______ _______ _______ _____ _____    ______ ____
ROOT
ATOM      1  H   UNK    1        6.100  11.373   0.000  0.00  0.00    +0.000 HD
ENDROOT
TORSDOF 0
REMARK  Name = molecules/XVVOERDUTLJJHN-IAEQDCLQSA-N.pdb
REMARK                            x       y       z     vdW  Elec       q    Type
REMARK                         _______ _______ _______ _____ _____    ______ ____
ROOT
ATOM      1  H   UNK    1        3.887   9.380   0.000  0.00  0.00    +0.000 HD
ENDROOT
TORSDOF 0
REMARK  Name = molecules/XVVOERDUTLJJHN-IAEQDCLQSA-N.pdb
REMARK                            x       y       z     vdW  Elec       q    Type
REMARK                         _______ _______ _______ _____ _____    ______ ____
ROOT
ATOM      1  H   UNK    1        5.227  12.359   0.000  0.00  0.00    +0.000 HD
ENDROOT
TORSDOF 0
REMARK  Name = molecules/XVVOERDUTLJJHN-IAEQDCLQSA-N.pdb
REMARK                            x       y       z     vdW  Elec       q    Type
REMARK                         _______ _______ _______ _____ _____    ______ ____
ROOT
ATOM      1  H   UNK    1        5.894   7.151   0.000  0.00  0.00    +0.000 HD
ENDROOT
TORSDOF 0
REMARK  Name = molecules/XVVOERDUTLJJHN-IAEQDCLQSA-N.pdb
REMARK                            x       y       z     vdW  Elec       q    Type
REMARK                         _______ _______ _______ _____ _____    ______ ____
ROOT
ATOM      1  H   UNK    1        6.335  18.674   0.000  0.00  0.00    +0.000 HD
ENDROOT
TORSDOF 0
REMARK  Name = molecules/XVVOERDUTLJJHN-IAEQDCLQSA-N.pdb
REMARK                            x       y       z     vdW  Elec       q    Type
REMARK                         _______ _______ _______ _____ _____    ______ ____
ROOT
ATOM      1  H   UNK    1        5.532  16.203   0.000  0.00  0.00    +0.000 HD
ENDROOT
TORSDOF 0
REMARK  Name = molecules/XVVOERDUTLJJHN-IAEQDCLQSA-N.pdb
REMARK                            x       y       z     vdW  Elec       q    Type
REMARK                         _______ _______ _______ _____ _____    ______ ____
ROOT
ATOM      1  H   UNK    1       -6.751  14.153   0.000  0.00  0.00    +0.000 HD
ENDROOT
TORSDOF 0
REMARK  Name = molecules/XVVOERDUTLJJHN-IAEQDCLQSA-N.pdb
REMARK                            x       y       z     vdW  Elec       q    Type
REMARK                         _______ _______ _______ _____ _____    ______ ____
ROOT
ATOM      1  H   UNK    1       -3.837   8.465   0.000  0.00  0.00    +0.000 HD
ENDROOT
TORSDOF 0
REMARK  Name = molecules/XVVOERDUTLJJHN-IAEQDCLQSA-N.pdb
REMARK                            x       y       z     vdW  Elec       q    Type
REMARK                         _______ _______ _______ _____ _____    ______ ____
ROOT
ATOM      1  H   UNK    1       -3.713   9.645   0.000  0.00  0.00    +0.000 HD
ENDROOT
TORSDOF 0
REMARK  Name = molecules/XVVOERDUTLJJHN-IAEQDCLQSA-N.pdb
REMARK                            x       y       z     vdW  Elec       q    Type
REMARK                         _______ _______ _______ _____ _____    ______ ____
ROOT
ATOM      1  H   UNK    1      -13.653  11.223   0.000  0.00  0.00    +0.000 HD
ENDROOT
TORSDOF 0
REMARK  Name = molecules/XVVOERDUTLJJHN-IAEQDCLQSA-N.pdb
REMARK                            x       y       z     vdW  Elec       q    Type
REMARK                         _______ _______ _______ _____ _____    ______ ____
ROOT
ATOM      1  H   UNK    1      -11.122   7.469   0.000  0.00  0.00    +0.000 HD
ENDROOT
TORSDOF 0
REMARK  Name = molecules/XVVOERDUTLJJHN-IAEQDCLQSA-N.pdb
REMARK                            x       y       z     vdW  Elec       q    Type
REMARK                         _______ _______ _______ _____ _____    ______ ____
ROOT
ATOM      1  H   UNK    1      -11.259  -2.208   0.000  0.00  0.00    +0.000 HD
ENDROOT
TORSDOF 0
REMARK  Name = molecules/XVVOERDUTLJJHN-IAEQDCLQSA-N.pdb
REMARK                            x       y       z     vdW  Elec       q    Type
REMARK                         _______ _______ _______ _____ _____    ______ ____
ROOT
ATOM      1  H   UNK    1       -2.706   3.324   0.000  0.00  0.00    +0.000 HD
ENDROOT
TORSDOF 0
REMARK  Name = molecules/XVVOERDUTLJJHN-IAEQDCLQSA-N.pdb
REMARK                            x       y       z     vdW  Elec       q    Type
REMARK                         _______ _______ _______ _____ _____    ______ ____
ROOT
ATOM      1  H   UNK    1       -5.171   4.562   0.000  0.00  0.00    +0.000 HD
ENDROOT
TORSDOF 0
REMARK  Name = molecules/XVVOERDUTLJJHN-IAEQDCLQSA-N.pdb
REMARK                            x       y       z     vdW  Elec       q    Type
REMARK                         _______ _______ _______ _____ _____    ______ ____
ROOT
ATOM      1  H   UNK    1       -6.272  -6.283   0.000  0.00  0.00    +0.000 HD
ENDROOT
TORSDOF 0
REMARK  Name = molecules/XVVOERDUTLJJHN-IAEQDCLQSA-N.pdb
REMARK                            x       y       z     vdW  Elec       q    Type
REMARK                         _______ _______ _______ _____ _____    ______ ____
ROOT
ATOM      1  H   UNK    1        1.108  -1.148   0.000  0.00  0.00    +0.000 HD
ENDROOT
TORSDOF 0
REMARK  Name = molecules/XVVOERDUTLJJHN-IAEQDCLQSA-N.pdb
REMARK                            x       y       z     vdW  Elec       q    Type
REMARK                         _______ _______ _______ _____ _____    ______ ____
ROOT
ATOM      1  H   UNK    1        3.594  -9.313   0.000  0.00  0.00    +0.000 HD
ENDROOT
TORSDOF 0
REMARK  Name = molecules/XVVOERDUTLJJHN-IAEQDCLQSA-N.pdb
REMARK                            x       y       z     vdW  Elec       q    Type
REMARK                         _______ _______ _______ _____ _____    ______ ____
ROOT
ATOM      1  H   UNK    1        5.696  -7.786   0.000  0.00  0.00    +0.000 HD
ENDROOT
TORSDOF 0
REMARK  Name = molecules/XVVOERDUTLJJHN-IAEQDCLQSA-N.pdb
REMARK                            x       y       z     vdW  Elec       q    Type
REMARK                         _______ _______ _______ _____ _____    ______ ____
ROOT
ATOM      1  H   UNK    1        1.005   1.840   0.000  0.00  0.00    +0.000 HD
ENDROOT
TORSDOF 0
REMARK  Name = molecules/XVVOERDUTLJJHN-IAEQDCLQSA-N.pdb
REMARK                            x       y       z     vdW  Elec       q    Type
REMARK                         _______ _______ _______ _____ _____    ______ ____
ROOT
ATOM      1  H   UNK    1       -1.293   3.768   0.000  0.00  0.00    +0.000 HD
ENDROOT
TORSDOF 0
REMARK  Name = molecules/XVVOERDUTLJJHN-IAEQDCLQSA-N.pdb
REMARK                            x       y       z     vdW  Elec       q    Type
REMARK                         _______ _______ _______ _____ _____    ______ ____
ROOT
ATOM      1  H   UNK    1       -2.085   3.235   0.000  0.00  0.00    +0.000 HD
ENDROOT
TORSDOF 0
REMARK  Name = molecules/XVVOERDUTLJJHN-IAEQDCLQSA-N.pdb
REMARK                            x       y       z     vdW  Elec       q    Type
REMARK                         _______ _______ _______ _____ _____    ______ ____
ROOT
ATOM      1  H   UNK    1       -6.546   0.207   0.000  0.00  0.00    +0.000 HD
ENDROOT
TORSDOF 0
REMARK  Name = molecules/XVVOERDUTLJJHN-IAEQDCLQSA-N.pdb
REMARK                            x       y       z     vdW  Elec       q    Type
REMARK                         _______ _______ _______ _____ _____    ______ ____
ROOT
ATOM      1  H   UNK    1      -11.055   6.680   0.000  0.00  0.00    +0.000 HD
ENDROOT
TORSDOF 0
REMARK  Name = molecules/XVVOERDUTLJJHN-IAEQDCLQSA-N.pdb
REMARK                            x       y       z     vdW  Elec       q    Type
REMARK                         _______ _______ _______ _____ _____    ______ ____
ROOT
ATOM      1  H   UNK    1        2.623  -0.069   0.000  0.00  0.00    +0.000 HD
ENDROOT
TORSDOF 0
REMARK  Name = molecules/XVVOERDUTLJJHN-IAEQDCLQSA-N.pdb
REMARK                            x       y       z     vdW  Elec       q    Type
REMARK                         _______ _______ _______ _____ _____    ______ ____
ROOT
ATOM      1  H   UNK    1        1.550  -0.835   0.000  0.00  0.00    +0.000 HD
ENDROOT
TORSDOF 0
REMARK  Name = molecules/XVVOERDUTLJJHN-IAEQDCLQSA-N.pdb
REMARK                            x       y       z     vdW  Elec       q    Type
REMARK                         _______ _______ _______ _____ _____    ______ ____
ROOT
ATOM      1  H   UNK    1       -1.338  -2.892   0.000  0.00  0.00    +0.000 HD
ENDROOT
TORSDOF 0
REMARK  Name = molecules/XVVOERDUTLJJHN-IAEQDCLQSA-N.pdb
REMARK                            x       y       z     vdW  Elec       q    Type
REMARK                         _______ _______ _______ _____ _____    ______ ____
ROOT
ATOM      1  H   UNK    1        4.377   4.393   0.000  0.00  0.00    +0.000 HD
ENDROOT
TORSDOF 0
REMARK  Name = molecules/XVVOERDUTLJJHN-IAEQDCLQSA-N.pdb
REMARK                            x       y       z     vdW  Elec       q    Type
REMARK                         _______ _______ _______ _____ _____    ______ ____
ROOT
ATOM      1  H   UNK    1        5.229   1.847   0.000  0.00  0.00    +0.000 HD
ENDROOT
TORSDOF 0
REMARK  Name = molecules/XVVOERDUTLJJHN-IAEQDCLQSA-N.pdb
REMARK                            x       y       z     vdW  Elec       q    Type
REMARK                         _______ _______ _______ _____ _____    ______ ____
ROOT
ATOM      1  H   UNK    1        3.836   0.812   0.000  0.00  0.00    +0.000 HD
ENDROOT
TORSDOF 0
REMARK  Name = molecules/XVVOERDUTLJJHN-IAEQDCLQSA-N.pdb
REMARK                            x       y       z     vdW  Elec       q    Type
REMARK                         _______ _______ _______ _____ _____    ______ ____
ROOT
ATOM      1  H   UNK    1       -5.383  -5.638   0.000  0.00  0.00    +0.000 HD
ENDROOT
TORSDOF 0
REMARK  Name = molecules/XVVOERDUTLJJHN-IAEQDCLQSA-N.pdb
REMARK                            x       y       z     vdW  Elec       q    Type
REMARK                         _______ _______ _______ _____ _____    ______ ____
ROOT
ATOM      1  H   UNK    1        1.730 -10.667   0.000  0.00  0.00    +0.000 HD
ENDROOT
TORSDOF 0
REMARK  Name = molecules/XVVOERDUTLJJHN-IAEQDCLQSA-N.pdb
REMARK                            x       y       z     vdW  Elec       q    Type
REMARK                         _______ _______ _______ _____ _____    ______ ____
ROOT
ATOM      1  H   UNK    1       -0.372 -12.194   0.000  0.00  0.00    +0.000 HD
ENDROOT
TORSDOF 0
REMARK  Name = molecules/XVVOERDUTLJJHN-IAEQDCLQSA-N.pdb
REMARK                            x       y       z     vdW  Elec       q    Type
REMARK                         _______ _______ _______ _____ _____    ______ ____
ROOT
ATOM      1  H   UNK    1      -13.336  -8.386   0.000  0.00  0.00    +0.000 HD
ENDROOT
TORSDOF 0
REMARK  Name = molecules/XVVOERDUTLJJHN-IAEQDCLQSA-N.pdb
REMARK                            x       y       z     vdW  Elec       q    Type
REMARK                         _______ _______ _______ _____ _____    ______ ____
ROOT
ATOM      1  H   UNK    1      -14.863  -6.284   0.000  0.00  0.00    +0.000 HD
ENDROOT
TORSDOF 0
