REMARK  Name = molecules/XWALNWXLMVGSFR-HLXURNFRSA-N.pdb
REMARK                            x       y       z     vdW  Elec       q    Type
REMARK                         _______ _______ _______ _____ _____    ______ ____
ROOT
ATOM      1  C   LIG    1        2.205  -1.525   1.284  0.00  0.00    +0.020 C 
ATOM      2  C   LIG    1        2.320  -0.480   0.168  0.00  0.00    +0.011 C 
ATOM      3  C   LIG    1        2.918   0.753   0.677  0.00  0.00    -0.056 C 
ATOM      4  C   LIG    1        2.115   1.454   1.754  0.00  0.00    +0.032 C 
ATOM      5  C   LIG    1        0.727   1.715   1.211  0.00  0.00    +0.008 C 
ATOM      6  C   LIG    1        0.070   0.515   0.636  0.00  0.00    -0.003 C 
ATOM      7  C   LIG    1       -1.206   0.823  -0.066  0.00  0.00    +0.001 C 
ATOM      8  C   LIG    1       -2.192   1.619   0.682  0.00  0.00    +0.007 C 
ATOM      9  C   LIG    1       -3.523   0.972   0.409  0.00  0.00    +0.035 C 
ATOM     10  C   LIG    1       -3.261  -0.145  -0.607  0.00  0.00    +0.069 C 
ATOM     11  C   LIG    1       -3.555   0.284  -1.994  0.00  0.00    +0.042 C 
ATOM     12  C   LIG    1       -1.874  -0.540  -0.305  0.00  0.00    -0.000 C 
ATOM     13  C   LIG    1       -1.887  -1.358   0.963  0.00  0.00    +0.014 C 
ATOM     14  C   LIG    1       -1.113  -1.210  -1.380  0.00  0.00    +0.010 C 
ATOM     15  C   LIG    1        0.337  -1.421  -0.917  0.00  0.00    +0.005 C 
ATOM     16  C   LIG    1        4.043   1.231   0.236  0.00  0.00    +0.051 C 
ATOM     17  C   LIG    1        4.825   0.590  -0.812  0.00  0.00    +0.179 C 
ATOM     18  O   LIG    1        5.895   1.062  -1.217  0.00  0.00    -0.288 OA
ATOM     19  C   LIG    1        4.266  -0.640  -1.351  0.00  0.00    +0.047 C 
ATOM     20  C   LIG    1        0.945  -0.174  -0.395  0.00  0.00    +0.006 C 
ATOM     21  C   LIG    1        3.125  -1.102  -0.885  0.00  0.00    -0.012 C 
ENDROOT
BRANCH  10  22
ATOM     22  O   LIG    1       -4.118  -1.188  -0.251  0.00  0.00    -0.388 OA
ATOM     23  H   LIG    1       -5.034  -0.845  -0.090  0.00  0.00    +0.210 HD
ENDBRANCH  10  22
TORSDOF 1
