REMARK  Name = molecules/XWLUWCNOOVRFPX-UHFFFAOYSA-N.pdb
REMARK                            x       y       z     vdW  Elec       q    Type
REMARK                         _______ _______ _______ _____ _____    ______ ____
ROOT
ATOM      1  O   LIG    1        0.569   0.467  -1.585  0.00  0.00    -0.272 OA
ATOM      2  C   LIG    1        0.504   0.402  -0.339  0.00  0.00    +0.257 C 
ATOM      3  N   LIG    1        1.643   0.383   0.511  0.00  0.00    -0.199 N 
ATOM      4  C   LIG    1        1.151   0.622   1.828  0.00  0.00    +0.312 C 
ATOM      5  O   LIG    1        1.851   0.684   2.892  0.00  0.00    -0.252 OA
ATOM      6  N   LIG    1       -0.257   0.783   1.776  0.00  0.00    -0.277 N 
ATOM      7  H   LIG    1       -0.914   1.142   2.485  0.00  0.00    +0.152 HD
ATOM      8  C   LIG    1       -0.714   0.335   0.457  0.00  0.00    +0.164 C 
ENDROOT
BRANCH   8   9
ATOM      9  C   LIG    1       -1.128  -1.102   0.508  0.00  0.00    -0.011 A 
ATOM     10  C   LIG    1       -1.317  -1.737   1.694  0.00  0.00    +0.006 A 
ATOM     11  C   LIG    1       -1.695  -3.070   1.646  0.00  0.00    +0.000 A 
ATOM     12  C   LIG    1       -1.872  -3.724   0.449  0.00  0.00    +0.000 A 
ATOM     13  C   LIG    1       -1.677  -3.066  -0.745  0.00  0.00    +0.000 A 
ATOM     14  C   LIG    1       -1.302  -1.743  -0.698  0.00  0.00    +0.006 A 
ENDBRANCH   8   9
BRANCH   8  15
ATOM     15  C   LIG    1       -1.847   1.144   0.003  0.00  0.00    -0.011 A 
ATOM     16  C   LIG    1       -3.087   0.932   0.567  0.00  0.00    +0.006 A 
ATOM     17  C   LIG    1       -4.201   1.673   0.169  0.00  0.00    +0.000 A 
ATOM     18  C   LIG    1       -4.079   2.646  -0.812  0.00  0.00    +0.000 A 
ATOM     19  C   LIG    1       -2.845   2.857  -1.374  0.00  0.00    +0.000 A 
ATOM     20  C   LIG    1       -1.742   2.105  -0.961  0.00  0.00    +0.006 A 
ENDBRANCH   8  15
BRANCH   3  21
ATOM     21  C   LIG    1        3.033   0.168   0.186  0.00  0.00    +0.292 C 
BRANCH  21  22
ATOM     22  O   LIG    1        3.731   1.319  -0.115  0.00  0.00    -0.267 OA
BRANCH  22  23
ATOM     23  P   LIG    1        5.337   0.855  -0.461  0.00  0.00    +0.474 P 
ATOM     24  O   LIG    1        6.215   2.068  -0.659  0.00  0.00    -0.227 OA
BRANCH  23  25
ATOM     25  O   LIG    1        5.973  -0.077   0.788  0.00  0.00    -0.303 OA
ATOM     26  H   LIG    1        5.463  -0.935   0.809  0.00  0.00    +0.222 HD
ENDBRANCH  23  25
BRANCH  23  27
ATOM     27  O   LIG    1        5.397  -0.066  -1.873  0.00  0.00    -0.303 OA
ATOM     28  H   LIG    1        6.291  -0.521  -1.888  0.00  0.00    +0.222 HD
ENDBRANCH  23  27
ENDBRANCH  22  23
ENDBRANCH  21  22
ENDBRANCH   3  21
TORSDOF 7
