REMARK  Name = molecules/XWTIDFOGTCVGQB-FHIVUSPVSA-N.pdb
REMARK                            x       y       z     vdW  Elec       q    Type
REMARK                         _______ _______ _______ _____ _____    ______ ____
ROOT
ATOM      1  C   LIG    1        0.628  -0.618   0.855  0.00  0.00    +0.012 C 
ATOM      2  C   LIG    1        0.124  -0.147  -0.464  0.00  0.00    -0.016 C 
ATOM      3  C   LIG    1       -0.315   1.265  -0.414  0.00  0.00    +0.039 C 
ATOM      4  C   LIG    1       -1.736   1.589  -0.289  0.00  0.00    +0.120 C 
ATOM      5  C   LIG    1       -2.734   0.500  -0.148  0.00  0.00    +0.035 C 
ATOM      6  C   LIG    1       -3.858   0.811   0.823  0.00  0.00    +0.016 C 
ATOM      7  C   LIG    1       -3.301   1.057   2.224  0.00  0.00    +0.020 C 
ATOM      8  C   LIG    1       -4.748  -0.377   0.868  0.00  0.00    -0.023 C 
ATOM      9  C   LIG    1       -4.105  -1.684   1.282  0.00  0.00    +0.193 C 
ATOM     10  F   LIG    1       -5.045  -2.667   1.336  0.00  0.00    -0.241 F 
ATOM     11  C   LIG    1       -3.076  -1.959   0.174  0.00  0.00    +0.045 C 
ATOM     12  C   LIG    1       -6.003  -0.398   0.540  0.00  0.00    +0.053 C 
ATOM     13  C   LIG    1       -6.647   0.820   0.075  0.00  0.00    +0.179 C 
ATOM     14  C   LIG    1       -5.861   2.029  -0.012  0.00  0.00    +0.047 C 
ATOM     15  O   LIG    1       -7.858   0.858  -0.254  0.00  0.00    -0.288 OA
ATOM     16  C   LIG    1       -4.587   1.996   0.336  0.00  0.00    -0.012 C 
ATOM     17  C   LIG    1       -2.079  -0.857   0.167  0.00  0.00    +0.002 C 
ATOM     18  C   LIG    1       -1.078  -0.968  -0.942  0.00  0.00    -0.000 C 
ATOM     19  C   LIG    1       -0.473  -2.279  -1.203  0.00  0.00    +0.008 C 
ATOM     20  C   LIG    1        0.679  -1.849  -2.116  0.00  0.00    -0.002 C 
ATOM     21  C   LIG    1        0.094  -1.642  -3.474  0.00  0.00    +0.008 C 
ATOM     22  C   LIG    1        1.102  -0.502  -1.559  0.00  0.00    +0.076 C 
ENDROOT
BRANCH   4  23
ATOM     23  O   LIG    1       -1.919   2.464   0.811  0.00  0.00    -0.391 OA
ATOM     24  H   LIG    1       -1.607   3.369   0.528  0.00  0.00    +0.210 HD
ENDBRANCH   4  23
BRANCH  22  25
ATOM     25  C   LIG    1        2.505  -0.608  -1.129  0.00  0.00    +0.243 C 
ATOM     26  O   LIG    1        3.104  -1.724  -1.186  0.00  0.00    -0.285 OA
BRANCH  25  27
ATOM     27  C   LIG    1        3.282   0.504  -0.626  0.00  0.00    +0.375 C 
ATOM     28  O   LIG    1        2.764   1.640  -0.557  0.00  0.00    -0.242 OA
BRANCH  27  29
ATOM     29  O   LIG    1        4.595   0.391  -0.205  0.00  0.00    -0.459 OA
BRANCH  29  30
ATOM     30  C   LIG    1        5.326   1.517   0.285  0.00  0.00    +0.232 C 
BRANCH  30  31
ATOM     31  C   LIG    1        6.726   1.113   0.673  0.00  0.00    +0.041 C 
BRANCH  31  32
ATOM     32  C   LIG    1        6.710   0.050   1.765  0.00  0.00    -0.000 C 
ATOM     33  C   LIG    1        8.107  -0.350   2.148  0.00  0.00    +0.004 C 
ENDBRANCH  31  32
ENDBRANCH  30  31
ENDBRANCH  29  30
ENDBRANCH  27  29
ENDBRANCH  25  27
ENDBRANCH  22  25
TORSDOF 7
