REMARK  Name = molecules/XWTYSIMOBUGWOL-NSHDSACASA-N.pdb
REMARK                            x       y       z     vdW  Elec       q    Type
REMARK                         _______ _______ _______ _____ _____    ______ ____
ROOT
ATOM      1  C   LIG    1        0.348  -0.401  -0.106  0.00  0.00    +0.158 C 
ENDROOT
BRANCH   1   2
ATOM      2  C   LIG    1        1.797  -0.368   0.111  0.00  0.00    -0.011 A 
ATOM      3  C   LIG    1        2.545   0.733   0.400  0.00  0.00    +0.051 A 
ATOM      4  C   LIG    1        3.912   0.623   0.560  0.00  0.00    +0.121 A 
ATOM      5  C   LIG    1        4.574  -0.573   0.439  0.00  0.00    +0.090 A 
ATOM      6  C   LIG    1        3.821  -1.699   0.145  0.00  0.00    +0.121 A 
ATOM      7  C   LIG    1        2.462  -1.591  -0.014  0.00  0.00    +0.051 A 
BRANCH   4   8
ATOM      8  O   LIG    1        4.654   1.753   0.856  0.00  0.00    -0.507 OA
ATOM      9  H   LIG    1        5.057   2.340   0.142  0.00  0.00    +0.292 HD
ENDBRANCH   4   8
BRANCH   6  10
ATOM     10  O   LIG    1        4.440  -2.947   0.011  0.00  0.00    -0.507 OA
ATOM     11  H   LIG    1        5.419  -3.098   0.111  0.00  0.00    +0.292 HD
ENDBRANCH   6  10
ENDBRANCH   1   2
BRANCH   1  12
ATOM     12  O   LIG    1       -0.198  -1.432   0.637  0.00  0.00    -0.386 OA
ATOM     13  H   LIG    1       -0.242  -2.244   0.075  0.00  0.00    +0.210 HD
ENDBRANCH   1  12
BRANCH   1  14
ATOM     14  C   LIG    1       -0.343   0.913  -0.009  0.00  0.00    +0.117 C 
BRANCH  14  15
ATOM     15  N   LIG    1       -1.643   1.044  -0.455  0.00  0.00    -0.309 NA
ATOM     16  H   LIG    1       -1.836   2.027  -0.815  0.00  0.00    +0.123 HD
BRANCH  15  17
ATOM     17  C   LIG    1       -2.784   0.500   0.100  0.00  0.00    +0.011 C 
ATOM     18  C   LIG    1       -3.128   0.949   1.499  0.00  0.00    +0.027 C 
ATOM     19  C   LIG    1       -3.013  -0.977   0.026  0.00  0.00    +0.027 C 
ATOM     20  C   LIG    1       -3.959   1.092  -0.746  0.00  0.00    +0.027 C 
ENDBRANCH  15  17
ENDBRANCH  14  15
ENDBRANCH   1  14
TORSDOF 7
