REMARK  Name = molecules/XWZXRENCCHMZNF-RXMQYKEDSA-N.pdb
REMARK                            x       y       z     vdW  Elec       q    Type
REMARK                         _______ _______ _______ _____ _____    ______ ____
ROOT
ATOM      1  O   LIG    1        1.719  -1.348   0.828  0.00  0.00    -0.437 OA
ATOM      2  C   LIG    1        0.379  -1.335   1.214  0.00  0.00    +0.410 C 
ATOM      3  O   LIG    1       -0.193  -2.224   1.903  0.00  0.00    -0.226 OA
ATOM      4  N   LIG    1       -0.244  -0.156   0.707  0.00  0.00    -0.201 N 
ATOM      5  C   LIG    1        0.783   0.530   0.003  0.00  0.00    +0.265 C 
ATOM      6  O   LIG    1        0.817   1.758  -0.340  0.00  0.00    -0.271 OA
ATOM      7  C   LIG    1        1.831  -0.489  -0.259  0.00  0.00    +0.261 C 
ATOM      8  C   LIG    1        3.153   0.231  -0.338  0.00  0.00    +0.062 C 
ENDROOT
BRANCH   4   9
ATOM      9  C   LIG    1       -1.612   0.295   0.845  0.00  0.00    +0.146 C 
BRANCH   9  10
ATOM     10  C   LIG    1       -2.491  -0.196  -0.244  0.00  0.00    -0.015 C 
ATOM     11  C   LIG    1       -3.136   0.636  -1.055  0.00  0.00    +0.005 C 
ENDBRANCH   9  10
ENDBRANCH   4   9
TORSDOF 2
