REMARK  Name = molecules/XXLZPUYGHQWHRN-RPBOFIJWSA-N.pdb
REMARK                            x       y       z     vdW  Elec       q    Type
REMARK                         _______ _______ _______ _____ _____    ______ ____
ROOT
ATOM      1  C   LIG    1       -0.161  -0.947  -1.057  0.00  0.00    -0.066 C 
ATOM      2  C   LIG    1       -1.179   0.121  -0.656  0.00  0.00    +0.054 C 
ATOM      3  C   LIG    1       -1.988  -0.434   0.493  0.00  0.00    +0.092 C 
ATOM      4  C   LIG    1       -3.216   0.353   0.737  0.00  0.00    -0.023 A 
ATOM      5  C   LIG    1       -4.094  -0.181   1.692  0.00  0.00    -0.038 A 
ATOM      6  C   LIG    1       -3.685  -1.472   2.325  0.00  0.00    +0.051 C 
ATOM      7  C   LIG    1       -3.311  -2.374   1.171  0.00  0.00    +0.090 C 
ATOM      8  C   LIG    1       -5.271   0.430   2.037  0.00  0.00    +0.053 A 
ATOM      9  C   LIG    1       -5.578   1.633   1.389  0.00  0.00    +0.162 A 
ATOM     10  C   LIG    1       -4.751   2.194   0.448  0.00  0.00    +0.162 A 
ATOM     11  C   LIG    1       -3.564   1.530   0.135  0.00  0.00    +0.054 A 
ATOM     12  N   LIG    1       -2.322  -1.789   0.368  0.00  0.00    -0.291 NA
ATOM     13  C   LIG    1       -2.040  -2.430  -0.866  0.00  0.00    +0.115 C 
ATOM     14  C   LIG    1       -0.558  -2.202  -1.165  0.00  0.00    -0.056 C 
ENDROOT
BRANCH   9  15
ATOM     15  O   LIG    1       -6.765   2.321   1.685  0.00  0.00    -0.491 OA
ATOM     16  C   LIG    1       -7.713   1.878   2.623  0.00  0.00    +0.277 C 
ENDBRANCH   9  15
BRANCH  10  17
ATOM     17  O   LIG    1       -5.084   3.382  -0.171  0.00  0.00    -0.491 OA
ATOM     18  C   LIG    1       -4.197   3.939  -1.149  0.00  0.00    +0.277 C 
ENDBRANCH  10  17
BRANCH  14  19
ATOM     19  C   LIG    1        0.304  -3.315  -1.537  0.00  0.00    +0.028 C 
ATOM     20  C   LIG    1        0.287  -4.316  -0.364  0.00  0.00    +0.008 C 
ENDBRANCH  14  19
BRANCH   1  21
ATOM     21  C   LIG    1        1.243  -0.560  -1.313  0.00  0.00    +0.054 C 
BRANCH  21  22
ATOM     22  C   LIG    1        1.839   0.068  -0.037  0.00  0.00    +0.088 C 
ATOM     23  N   LIG    1        1.702  -0.807   1.086  0.00  0.00    -0.309 NA
ATOM     24  H   LIG    1        1.605  -0.333   1.996  0.00  0.00    +0.123 HD
ATOM     25  C   LIG    1        2.698  -1.854   1.119  0.00  0.00    +0.086 C 
ATOM     26  C   LIG    1        4.048  -1.260   1.392  0.00  0.00    +0.050 C 
ATOM     27  C   LIG    1        4.277  -0.160   0.414  0.00  0.00    -0.038 A 
ATOM     28  C   LIG    1        5.591   0.213   0.206  0.00  0.00    +0.053 A 
ATOM     29  C   LIG    1        5.920   1.220  -0.677  0.00  0.00    +0.162 A 
ATOM     30  C   LIG    1        4.896   1.857  -1.358  0.00  0.00    +0.162 A 
ATOM     31  C   LIG    1        3.579   1.471  -1.139  0.00  0.00    +0.054 A 
ATOM     32  C   LIG    1        3.241   0.465  -0.258  0.00  0.00    -0.023 A 
BRANCH  29  33
ATOM     33  O   LIG    1        7.251   1.613  -0.901  0.00  0.00    -0.491 OA
ATOM     34  C   LIG    1        8.299   0.972  -0.214  0.00  0.00    +0.277 C 
ENDBRANCH  29  33
BRANCH  30  35
ATOM     35  O   LIG    1        5.221   2.873  -2.249  0.00  0.00    -0.491 OA
ATOM     36  C   LIG    1        4.175   3.516  -2.939  0.00  0.00    +0.277 C 
ENDBRANCH  30  35
ENDBRANCH  21  22
ENDBRANCH   1  21
TORSDOF 7
