REMARK  Name = molecules/XXSMGPRMXLTPCZ-CQSZACIVSA-N.pdb
REMARK                            x       y       z     vdW  Elec       q    Type
REMARK                         _______ _______ _______ _____ _____    ______ ____
ROOT
ATOM      1  N   LIG    1       -2.170  -0.094   0.122  0.00  0.00    -0.341 N 
ATOM      2  H   LIG    1       -2.121  -1.078   0.444  0.00  0.00    +0.146 HD
ENDROOT
BRANCH   1   3
ATOM      3  C   LIG    1       -3.366   0.640   0.106  0.00  0.00    +0.038 A 
ATOM      4  C   LIG    1       -4.568   0.076   0.476  0.00  0.00    +0.021 A 
ATOM      5  C   LIG    1       -4.686  -1.239   0.871  0.00  0.00    +0.013 A 
ATOM      6  C   LIG    1       -5.915  -1.771   1.238  0.00  0.00    +0.021 A 
ATOM      7  C   LIG    1       -7.063  -1.014   1.224  0.00  0.00    +0.043 A 
ATOM      8 CL   LIG    1       -8.620  -1.680   1.686  0.00  0.00    -0.083 Cl
ATOM      9  C   LIG    1       -6.935   0.299   0.829  0.00  0.00    +0.048 A 
ATOM     10  C   LIG    1       -5.729   0.854   0.459  0.00  0.00    +0.074 A 
ATOM     11  N   LIG    1       -5.704   2.149   0.087  0.00  0.00    -0.255 NA
ATOM     12  C   LIG    1       -4.545   2.712  -0.277  0.00  0.00    +0.113 A 
ATOM     13  C   LIG    1       -3.370   1.981  -0.275  0.00  0.00    +0.043 A 
ENDBRANCH   1   3
BRANCH   1  14
ATOM     14  C   LIG    1       -0.910   0.484  -0.312  0.00  0.00    +0.067 C 
ATOM     15  C   LIG    1       -1.065   0.759  -1.794  0.00  0.00    +0.028 C 
BRANCH  14  16
ATOM     16  C   LIG    1        0.227  -0.477  -0.051  0.00  0.00    +0.023 C 
BRANCH  16  17
ATOM     17  C   LIG    1        1.572   0.074  -0.476  0.00  0.00    +0.017 C 
BRANCH  17  18
ATOM     18  C   LIG    1        2.639  -0.929  -0.187  0.00  0.00    +0.084 C 
BRANCH  18  19
ATOM     19  N   LIG    1        3.924  -0.484  -0.551  0.00  0.00    -0.300 NA
BRANCH  19  20
ATOM     20  C   LIG    1        4.806  -1.478  -1.062  0.00  0.00    +0.081 C 
ATOM     21  C   LIG    1        6.169  -1.050  -1.442  0.00  0.00    +0.020 C 
ENDBRANCH  19  20
BRANCH  19  22
ATOM     22  C   LIG    1        4.501   0.573   0.176  0.00  0.00    +0.112 C 
BRANCH  22  23
ATOM     23  C   LIG    1        4.871   0.265   1.612  0.00  0.00    +0.171 C 
BRANCH  23  24
ATOM     24  O   LIG    1        5.420   1.426   2.154  0.00  0.00    -0.394 OA
ATOM     25  H   LIG    1        4.929   2.194   1.721  0.00  0.00    +0.209 HD
ENDBRANCH  23  24
ENDBRANCH  22  23
ENDBRANCH  19  22
ENDBRANCH  18  19
ENDBRANCH  17  18
ENDBRANCH  16  17
ENDBRANCH  14  16
ENDBRANCH   1  14
TORSDOF 10
