REMARK  Name = molecules/XXUPXHKCPIKWLR-JHUOEJJVSA-N.pdb
REMARK                            x       y       z     vdW  Elec       q    Type
REMARK                         _______ _______ _______ _____ _____    ______ ____
ROOT
ATOM      1  C   LIG    1       -0.890  -0.287  -1.631  0.00  0.00    +0.024 C 
ATOM      2  C   LIG    1        0.606  -0.496  -1.831  0.00  0.00    +0.027 C 
ATOM      3  C   LIG    1        0.791  -1.831  -1.142  0.00  0.00    +0.121 C 
ATOM      4  C   LIG    1       -0.489  -2.598  -1.471  0.00  0.00    +0.063 C 
ATOM      5  C   LIG    1       -1.361  -1.612  -2.260  0.00  0.00    +0.120 C 
ENDROOT
BRANCH   5   6
ATOM      6  O   LIG    1       -2.691  -1.854  -2.088  0.00  0.00    -0.391 OA
ATOM      7  H   LIG    1       -3.171  -2.050  -2.923  0.00  0.00    +0.210 HD
ENDBRANCH   5   6
BRANCH   3   8
ATOM      8  O   LIG    1        0.830  -1.648   0.255  0.00  0.00    -0.391 OA
ATOM      9  H   LIG    1        0.227  -2.267   0.731  0.00  0.00    +0.210 HD
ENDBRANCH   3   8
BRANCH   1  10
ATOM     10  C   LIG    1       -1.381   0.887  -2.384  0.00  0.00    +0.014 C 
BRANCH  10  11
ATOM     11  C   LIG    1       -2.821   1.206  -2.260  0.00  0.00    +0.074 C 
BRANCH  11  12
ATOM     12  C   LIG    1       -3.292   1.528  -0.908  0.00  0.00    +0.133 C 
ATOM     13  O   LIG    1       -2.479   1.386   0.007  0.00  0.00    -0.297 OA
BRANCH  12  14
ATOM     14  C   LIG    1       -4.647   2.010  -0.547  0.00  0.00    +0.074 C 
BRANCH  14  15
ATOM     15  C   LIG    1       -5.771   1.336  -1.282  0.00  0.00    +0.007 C 
BRANCH  15  16
ATOM     16  C   LIG    1       -5.931  -0.106  -1.072  0.00  0.00    +0.000 C 
BRANCH  16  17
ATOM     17  C   LIG    1       -6.229  -0.666   0.260  0.00  0.00    +0.000 C 
BRANCH  17  18
ATOM     18  C   LIG    1       -7.495  -0.386   0.949  0.00  0.00    -0.000 C 
BRANCH  18  19
ATOM     19  C   LIG    1       -7.877   0.977   1.361  0.00  0.00    -0.003 C 
ATOM     20  C   LIG    1       -6.876   1.546   2.322  0.00  0.00    +0.004 C 
ENDBRANCH  18  19
ENDBRANCH  17  18
ENDBRANCH  16  17
ENDBRANCH  15  16
ENDBRANCH  14  15
ENDBRANCH  12  14
ENDBRANCH  11  12
ENDBRANCH  10  11
ENDBRANCH   1  10
BRANCH   2  21
ATOM     21  C   LIG    1        1.441   0.597  -1.203  0.00  0.00    +0.033 C 
BRANCH  21  22
ATOM     22  C   LIG    1        1.247   0.714   0.239  0.00  0.00    -0.031 C 
ATOM     23  C   LIG    1        2.222   0.571   1.112  0.00  0.00    -0.031 C 
BRANCH  23  24
ATOM     24  C   LIG    1        3.640   0.278   0.803  0.00  0.00    +0.027 C 
BRANCH  24  25
ATOM     25  C   LIG    1        4.103  -1.013   1.420  0.00  0.00    +0.015 C 
BRANCH  25  26
ATOM     26  C   LIG    1        5.523  -1.360   1.128  0.00  0.00    +0.121 C 
BRANCH  26  27
ATOM     27  C   LIG    1        6.532  -0.410   1.614  0.00  0.00    +0.307 C 
ATOM     28  O   LIG    1        6.199   0.589   2.274  0.00  0.00    -0.251 OA
BRANCH  27  29
ATOM     29  O   LIG    1        7.874  -0.612   1.343  0.00  0.00    -0.462 OA
BRANCH  29  30
ATOM     30  C   LIG    1        8.874   0.303   1.809  0.00  0.00    +0.170 C 
ATOM     31  C   LIG    1        9.857  -0.495   2.624  0.00  0.00    +0.052 C 
ATOM     32  C   LIG    1        9.621   0.940   0.647  0.00  0.00    +0.052 C 
ENDBRANCH  29  30
ENDBRANCH  27  29
ENDBRANCH  26  27
ENDBRANCH  25  26
ENDBRANCH  24  25
ENDBRANCH  23  24
ENDBRANCH  21  22
ENDBRANCH   2  21
TORSDOF 19
