REMARK  Name = molecules/XXXSJQLZVNKRKX-YQRDHHIGSA-N.pdb
REMARK                            x       y       z     vdW  Elec       q    Type
REMARK                         _______ _______ _______ _____ _____    ______ ____
ROOT
ATOM      1  C   LIG    1        2.159   3.740   0.000  0.00  0.00    +0.208 C 
ATOM      2  C   LIG    1        0.750   4.253   0.000  0.00  0.00    +0.069 C 
ATOM      3  C   LIG    1        0.156   5.631   0.000  0.00  0.00    +0.057 C 
ATOM      4  C   LIG    1       -1.221   5.037   0.000  0.00  0.00    +0.099 C 
ATOM      5  C   LIG    1       -0.438   7.008   0.000  0.00  0.00    +0.016 C 
ATOM      6  N   LIG    1       -0.750   4.253   0.000  0.00  0.00    -0.338 N 
ATOM      7  H   LIG    1       -0.978   3.557   0.000  0.00  0.00    +0.146 HD
ENDROOT
BRANCH   1  10
ATOM      8  C   LIG    1        4.319   0.000   0.000  0.00  0.00    +0.044 C 
ATOM      9  C   LIG    1        4.059   1.477   0.000  0.00  0.00    +0.006 C 
ATOM     10  N   LIG    1        3.309   2.776   0.000  0.00  0.00    -0.332 N 
ATOM     11  H   LIG    1        3.869   3.716   0.000  0.00  0.00    +0.168 HD
ATOM     12  C   LIG    1        4.954   2.680   0.000  0.00  0.00    +0.055 C 
ENDBRANCH   1  10
BRANCH   1  13
ATOM     13  O   LIG    1        2.909   5.040   0.000  0.00  0.00    -0.493 OA
ATOM     14  H   LIG    1        1.779   5.345   0.000  0.00  0.00    +0.294 HD
ENDBRANCH   1  13
TORSDOF 2
REMARK  Name = molecules/XXXSJQLZVNKRKX-YQRDHHIGSA-N.pdb
REMARK                            x       y       z     vdW  Elec       q    Type
REMARK                         _______ _______ _______ _____ _____    ______ ____
ROOT
ATOM      1  N   LIG    1        4.059  -1.477   0.000  0.00  0.00    -0.163 NA
ATOM      2  H   LIG    1        5.328  -1.547   0.000  0.00  0.00    +0.163 HD
ENDROOT
TORSDOF 0
REMARK  Name = molecules/XXXSJQLZVNKRKX-YQRDHHIGSA-N.pdb
REMARK                            x       y       z     vdW  Elec       q    Type
REMARK                         _______ _______ _______ _____ _____    ______ ____
ROOT
ATOM      1  N   LIG    1       -3.309  -2.776   0.000  0.00  0.00    -0.317 N 
ATOM      2  C   LIG    1       -4.059  -1.477   0.000  0.00  0.00    +0.053 C 
ATOM      3  C   LIG    1       -4.954  -2.680   0.000  0.00  0.00    +0.060 C 
ATOM      4  H   LIG    1       -3.869  -3.716   0.000  0.00  0.00    +0.176 HD
ENDROOT
BRANCH   1   6
ATOM      5  C   LIG    1       -0.750  -4.253   0.000  0.00  0.00    +0.020 C 
ATOM      6  C   LIG    1       -2.159  -3.740   0.000  0.00  0.00    +0.031 C 
BRANCH   5   7
ATOM      7  N   LIG    1        0.750  -4.253   0.000  0.00  0.00    -0.288 N 
ATOM      8  H   LIG    1        1.284  -5.209   0.000  0.00  0.00    +0.157 HD
BRANCH   7   9
ATOM      9  C   LIG    1        2.159  -3.740   0.000  0.00  0.00    +0.121 C 
BRANCH   9  10
ATOM     10  C   LIG    1        3.309  -2.776   0.000  0.00  0.00    -0.017 C 
ATOM     11  C   LIG    1        4.798  -2.950   0.000  0.00  0.00    -0.012 C 
BRANCH  11  12
ATOM     12  C   LIG    1        5.468  -1.990   0.000  0.00  0.00    +0.013 C 
ATOM     13  C   LIG    1        6.288  -3.124   0.000  0.00  0.00    +0.009 C 
ENDBRANCH  11  12
ENDBRANCH   9  10
ENDBRANCH   7   9
ENDBRANCH   5   7
ENDBRANCH   1   6
BRANCH   2  14
ATOM     14  C   LIG    1       -4.319   0.000   0.000  0.00  0.00    +0.205 C 
BRANCH  14  15
ATOM     15  O   LIG    1       -5.819   0.000   0.000  0.00  0.00    -0.366 OA
ATOM     16  H   LIG    1       -5.518  -1.131   0.000  0.00  0.00    +0.212 HD
ENDBRANCH  14  15
BRANCH  14  17
ATOM     17  N   LIG    1       -4.059   1.477   0.000  0.00  0.00    -0.271 NA
ATOM     18  H   LIG    1       -5.153   1.493   0.000  0.00  0.00    +0.126 HD
BRANCH  17  19
ATOM     19  C   LIG    1       -3.309   2.776   0.000  0.00  0.00    +0.066 C 
ATOM     20  C   LIG    1       -4.798   2.950   0.000  0.00  0.00    +0.023 C 
ENDBRANCH  17  19
ENDBRANCH  14  17
ENDBRANCH   2  14
TORSDOF 9
REMARK  Name = molecules/XXXSJQLZVNKRKX-YQRDHHIGSA-N.pdb
REMARK                            x       y       z     vdW  Elec       q    Type
REMARK                         _______ _______ _______ _____ _____    ______ ____
ROOT
ATOM      1  O   HOH    1        5.808   0.183   0.000  0.00  0.00    -0.410 OA
ATOM      2  H   HOH    0        5.981  -0.581   0.000  0.00  0.00    +0.205 HD
ATOM      3  H   HOH    0        5.518   1.131   0.000  0.00  0.00    +0.205 HD
ENDROOT
TORSDOF 0
REMARK  Name = molecules/XXXSJQLZVNKRKX-YQRDHHIGSA-N.pdb
REMARK                            x       y       z     vdW  Elec       q    Type
REMARK                         _______ _______ _______ _____ _____    ______ ____
ROOT
ATOM      1  C   LIG    1        9.726   4.739   0.000  0.00  0.00    +0.242 C 
ATOM      2  O   LIG    1       10.621   5.942   0.000  0.00  0.00    -0.273 OA
ATOM      3  N   LIG    1       10.320   3.361   0.000  0.00  0.00    -0.216 NA
ENDROOT
BRANCH   1   4
ATOM      4  C   LIG    1        8.236   4.913   0.000  0.00  0.00    +0.170 C 
BRANCH   4   6
ATOM      5  C   LIG    1        5.850   3.884   0.000  0.00  0.00    +0.056 C 
ATOM      6  S   LIG    1        6.746   5.087   0.000  0.00  0.00    -0.131 S 
ENDBRANCH   4   6
ENDBRANCH   1   4
BRANCH   3   7
ATOM      7  C   LIG    1       11.809   3.187   0.000  0.00  0.00    +0.154 C 
BRANCH   7   8
ATOM      8  C   LIG    1       13.299   3.013   0.000  0.00  0.00    +0.134 C 
ATOM      9  N   LIG    1       13.125   1.523   0.000  0.00  0.00    -0.136 NA
ENDBRANCH   7   8
ENDBRANCH   3   7
TORSDOF 4
REMARK  Name = molecules/XXXSJQLZVNKRKX-YQRDHHIGSA-N.pdb
REMARK                            x       y       z     vdW  Elec       q    Type
REMARK                         _______ _______ _______ _____ _____    ______ ____
ROOT
ATOM      1  C   LIG    1       15.148  -2.287   0.000  0.00  0.00    +0.173 C 
ENDROOT
BRANCH   1   2
ATOM      2  C   LIG    1       16.637  -2.461   0.000  0.00  0.00    +0.267 C 
ATOM      3  O   LIG    1       17.113  -1.821   0.000  0.00  0.00    -0.269 OA
ATOM      4  O   LIG    1       18.018  -1.869   0.000  0.00  0.00    -0.266 OA
ATOM      5  C   LIG    1       18.896  -2.522   0.000  0.00  0.00    +0.289 C 
ATOM      6  C   LIG    1       18.721  -4.012   0.000  0.00  0.00    +0.139 C 
ATOM      7  N   LIG    1       20.273  -1.928   0.000  0.00  0.00    -0.083 NA
ATOM      8  N   LIG    1       17.232  -3.838   0.000  0.00  0.00    -0.220 NA
BRANCH   6   9
ATOM      9  C   LIG    1       18.547  -5.502   0.000  0.00  0.00    +0.051 C 
BRANCH   9  10
ATOM     10  C   LIG    1       18.373  -6.992   0.000  0.00  0.00    +0.007 C 
BRANCH  10  11
ATOM     11  C   LIG    1       18.199  -8.482   0.000  0.00  0.00    +0.019 C 
BRANCH  11  12
ATOM     12  C   LIG    1       18.025  -9.972   0.000  0.00  0.00    +0.124 C 
ATOM     13  N   LIG    1       17.851 -11.461   0.000  0.00  0.00    -0.143 NA
ENDBRANCH  11  12
ENDBRANCH  10  11
ENDBRANCH   9  10
ENDBRANCH   6   9
ENDBRANCH   1   2
BRANCH   1  16
ATOM     14  C   LIG    1       16.699  -0.203   0.000  0.00  0.00    +0.232 C 
ATOM     15  O   LIG    1       17.410  -0.732   0.000  0.00  0.00    -0.274 OA
ATOM     16  N   LIG    1       15.322  -0.797   0.000  0.00  0.00    -0.302 N 
ATOM     17  H   LIG    1       14.488   0.258   0.000  0.00  0.00    +0.150 HD
BRANCH  14  18
ATOM     18  C   LIG    1       16.873   1.287   0.000  0.00  0.00    +0.158 C 
BRANCH  18  19
ATOM     19  N   LIG    1       15.383   1.461   0.000  0.00  0.00    -0.244 NA
ATOM     20  H   LIG    1       14.328   0.627   0.000  0.00  0.00    +0.141 HD
ENDBRANCH  18  19
BRANCH  18  21
ATOM     21  C   LIG    1       17.047   2.777   0.000  0.00  0.00    +0.021 C 
BRANCH  21  22
ATOM     22  C   LIG    1       17.221   4.267   0.000  0.00  0.00    +0.007 C 
BRANCH  22  23
ATOM     23  C   LIG    1       17.396   5.757   0.000  0.00  0.00    +0.019 C 
BRANCH  23  24
ATOM     24  C   LIG    1       17.570   7.247   0.000  0.00  0.00    +0.124 C 
ATOM     25  N   LIG    1       17.744   8.737   0.000  0.00  0.00    -0.143 NA
ENDBRANCH  23  24
ENDBRANCH  22  23
ENDBRANCH  21  22
ENDBRANCH  18  21
ENDBRANCH  14  18
ENDBRANCH   1  16
BRANCH   1  26
ATOM     26  C   LIG    1       13.658  -2.112   0.000  0.00  0.00    +0.097 C 
BRANCH  26  27
ATOM     27  S   LIG    1       12.168  -1.938   0.000  0.00  0.00    -0.176 S 
ATOM     28  H   LIG    1       11.574  -0.561   0.000  0.00  0.00    +0.102 HD
ENDBRANCH  26  27
ENDBRANCH   1  26
TORSDOF 14
REMARK  Name = molecules/XXXSJQLZVNKRKX-YQRDHHIGSA-N.pdb
REMARK                            x       y       z     vdW  Elec       q    Type
REMARK                         _______ _______ _______ _____ _____    ______ ____
ROOT
ATOM      1  O   HOH    1        2.909  -5.040   0.000  0.00  0.00    -0.410 OA
ATOM      2  H   HOH    0        3.739  -4.213   0.000  0.00  0.00    +0.205 HD
ATOM      3  H   HOH    0        2.824  -5.979   0.000  0.00  0.00    +0.205 HD
ENDROOT
TORSDOF 0
REMARK  Name = molecules/XXXSJQLZVNKRKX-YQRDHHIGSA-N.pdb
REMARK                            x       y       z     vdW  Elec       q    Type
REMARK                         _______ _______ _______ _____ _____    ______ ____
ROOT
ATOM      1  C   LIG    1        8.372  -4.676   0.000  0.00  0.00    -0.026 C 
ATOM      2  C   LIG    1        9.268  -3.473   0.000  0.00  0.00    -0.026 C 
ATOM      3  C   LIG    1        6.882  -4.502   0.000  0.00  0.00    +0.026 C 
ENDROOT
BRANCH   2   4
ATOM      4  C   LIG    1        8.674  -2.095   0.000  0.00  0.00    +0.022 C 
ATOM      5  C   LIG    1        7.184  -1.921   0.000  0.00  0.00    +0.004 C 
ENDBRANCH   2   4
TORSDOF 1
REMARK  Name = molecules/XXXSJQLZVNKRKX-YQRDHHIGSA-N.pdb
REMARK                            x       y       z     vdW  Elec       q    Type
REMARK                         _______ _______ _______ _____ _____    ______ ____
ROOT
ATOM      1  C   LIG    1       -0.156  -5.631   0.000  0.00  0.00    +0.040 C 
ATOM      2  C   LIG    1        0.438  -7.008   0.000  0.00  0.00    -0.039 A 
ATOM      3  C   LIG    1        1.928  -7.182   0.000  0.00  0.00    -0.011 A 
ATOM      4  C   LIG    1        2.522  -8.560   0.000  0.00  0.00    +0.059 A 
ATOM      5  C   LIG    1        1.627  -9.763   0.000  0.00  0.00    +0.180 A 
ATOM      6  O   LIG    1        2.221 -11.140   0.000  0.00  0.00    -0.288 OA
ATOM      7  C   LIG    1        0.137  -9.589   0.000  0.00  0.00    +0.051 A 
ATOM      8  C   LIG    1       -0.458  -8.211   0.000  0.00  0.00    +0.008 A 
ENDROOT
TORSDOF 0
REMARK  Name = molecules/XXXSJQLZVNKRKX-YQRDHHIGSA-N.pdb
REMARK                            x       y       z     vdW  Elec       q    Type
REMARK                         _______ _______ _______ _____ _____    ______ ____
ROOT
ATOM      1  O   HOH    1       -2.909  -5.040   0.000  0.00  0.00    -0.410 OA
ATOM      2  H   HOH    0       -3.982  -5.796   0.000  0.00  0.00    +0.205 HD
ATOM      3  H   HOH    0       -1.779  -5.345   0.000  0.00  0.00    +0.205 HD
ENDROOT
TORSDOF 0
REMARK  Name = molecules/XXXSJQLZVNKRKX-YQRDHHIGSA-N.pdb
REMARK                            x       y       z     vdW  Elec       q    Type
REMARK                         _______ _______ _______ _____ _____    ______ ____
ROOT
ATOM      1  C   LIG    1       -5.850  -3.884   0.000  0.00  0.00    +0.021 A 
ATOM      2  C   LIG    1       -7.350  -3.866   0.000  0.00  0.00    +0.010 A 
ATOM      3  C   LIG    1       -8.341  -2.740   0.000  0.00  0.00    +0.011 A 
ATOM      4  C   LIG    1       -9.811  -3.035   0.000  0.00  0.00    +0.001 A 
ATOM      5  C   LIG    1      -10.291  -4.456   0.000  0.00  0.00    +0.002 A 
ATOM      6  C   LIG    1       -9.301  -5.582   0.000  0.00  0.00    +0.028 A 
ATOM      7  C   LIG    1       -7.830  -5.287   0.000  0.00  0.00    +0.072 A 
ATOM      8  N   LIG    1       -6.627  -6.183   0.000  0.00  0.00    -0.244 NA
ATOM      9  C   LIG    1       -5.403  -5.316   0.000  0.00  0.00    +0.099 A 
ENDROOT
TORSDOF 0
REMARK  Name = molecules/XXXSJQLZVNKRKX-YQRDHHIGSA-N.pdb
REMARK                            x       y       z     vdW  Elec       q    Type
REMARK                         _______ _______ _______ _____ _____    ______ ____
ROOT
ATOM      1  C   LIG    1       -2.159   3.740   0.000  0.00  0.00    +0.000 C 
ENDROOT
TORSDOF 0
REMARK  Name = molecules/XXXSJQLZVNKRKX-YQRDHHIGSA-N.pdb
REMARK                            x       y       z     vdW  Elec       q    Type
REMARK                         _______ _______ _______ _____ _____    ______ ____
ROOT
ATOM      1  C   LIG    1       -7.778   3.299   0.000  0.00  0.00    +0.018 C 
ATOM      2  C   LIG    1       -6.288   3.124   0.000  0.00  0.00    +0.001 C 
ENDROOT
BRANCH   1   3
ATOM      3  C   LIG    1       -9.268   3.473   0.000  0.00  0.00    +0.124 C 
ATOM      4  N   LIG    1      -10.758   3.647   0.000  0.00  0.00    -0.143 NA
ENDBRANCH   1   3
TORSDOF 1
REMARK  Name = molecules/XXXSJQLZVNKRKX-YQRDHHIGSA-N.pdb
REMARK                            x       y       z     vdW  Elec       q    Type
REMARK                         _______ _______ _______ _____ _____    ______ ____
ROOT
ATOM      1  O   HOH    1       -3.062   4.938   0.000  0.00  0.00    -0.253 OA
ATOM      2  H   HOH    0       -3.739   4.213   0.000  0.00  0.00    +0.253 HD
ENDROOT
TORSDOF 0
REMARK  Name = molecules/XXXSJQLZVNKRKX-YQRDHHIGSA-N.pdb
REMARK                            x       y       z     vdW  Elec       q    Type
REMARK                         _______ _______ _______ _____ _____    ______ ____
ROOT
ATOM      1  C   LIG    1       14.789   2.839   0.000  0.00  0.00    +0.000 C 
ENDROOT
TORSDOF 0
REMARK  Name = molecules/XXXSJQLZVNKRKX-YQRDHHIGSA-N.pdb
REMARK                            x       y       z     vdW  Elec       q    Type
REMARK                         _______ _______ _______ _____ _____    ______ ____
ROOT
ATOM      1  O   HOH    1       15.532   4.142   0.000  0.00  0.00    -0.253 OA
ATOM      2  H   HOH    0       15.644   3.307   0.000  0.00  0.00    +0.253 HD
ENDROOT
TORSDOF 0
REMARK  Name = molecules/XXXSJQLZVNKRKX-YQRDHHIGSA-N.pdb
REMARK                            x       y       z     vdW  Elec       q    Type
REMARK                         _______ _______ _______ _____ _____    ______ ____
ROOT
ATOM      1  H   UNK    1       -1.360   5.624   0.000  0.00  0.00    +0.000 HD
ENDROOT
TORSDOF 0
REMARK  Name = molecules/XXXSJQLZVNKRKX-YQRDHHIGSA-N.pdb
REMARK                            x       y       z     vdW  Elec       q    Type
REMARK                         _______ _______ _______ _____ _____    ______ ____
ROOT
ATOM      1  H   UNK    1        9.424   2.158   0.000  0.00  0.00    +0.000 HD
ENDROOT
TORSDOF 0
REMARK  Name = molecules/XXXSJQLZVNKRKX-YQRDHHIGSA-N.pdb
REMARK                            x       y       z     vdW  Elec       q    Type
REMARK                         _______ _______ _______ _____ _____    ______ ____
ROOT
ATOM      1  H   UNK    1       14.237   0.239   0.000  0.00  0.00    +0.000 HD
ENDROOT
TORSDOF 0
REMARK  Name = molecules/XXXSJQLZVNKRKX-YQRDHHIGSA-N.pdb
REMARK                            x       y       z     vdW  Elec       q    Type
REMARK                         _______ _______ _______ _____ _____    ______ ____
ROOT
ATOM      1  H   UNK    1       16.196  -4.923   0.000  0.00  0.00    +0.000 HD
ENDROOT
TORSDOF 0
REMARK  Name = molecules/XXXSJQLZVNKRKX-YQRDHHIGSA-N.pdb
REMARK                            x       y       z     vdW  Elec       q    Type
REMARK                         _______ _______ _______ _____ _____    ______ ____
ROOT
ATOM      1  H   UNK    1       20.447  -0.438   0.000  0.00  0.00    +0.000 HD
ENDROOT
TORSDOF 0
REMARK  Name = molecules/XXXSJQLZVNKRKX-YQRDHHIGSA-N.pdb
REMARK                            x       y       z     vdW  Elec       q    Type
REMARK                         _______ _______ _______ _____ _____    ______ ____
ROOT
ATOM      1  H   UNK    1       21.476  -2.824   0.000  0.00  0.00    +0.000 HD
ENDROOT
TORSDOF 0
REMARK  Name = molecules/XXXSJQLZVNKRKX-YQRDHHIGSA-N.pdb
REMARK                            x       y       z     vdW  Elec       q    Type
REMARK                         _______ _______ _______ _____ _____    ______ ____
ROOT
ATOM      1  H   UNK    1        4.624  -4.440   0.000  0.00  0.00    +0.000 HD
ENDROOT
TORSDOF 0
REMARK  Name = molecules/XXXSJQLZVNKRKX-YQRDHHIGSA-N.pdb
REMARK                            x       y       z     vdW  Elec       q    Type
REMARK                         _______ _______ _______ _____ _____    ______ ____
ROOT
ATOM      1  H   UNK    1        3.711 -11.314   0.000  0.00  0.00    +0.000 HD
ENDROOT
TORSDOF 0
REMARK  Name = molecules/XXXSJQLZVNKRKX-YQRDHHIGSA-N.pdb
REMARK                            x       y       z     vdW  Elec       q    Type
REMARK                         _______ _______ _______ _____ _____    ______ ____
ROOT
ATOM      1  H   UNK    1       -6.644  -7.683   0.000  0.00  0.00    +0.000 HD
ENDROOT
TORSDOF 0
REMARK  Name = molecules/XXXSJQLZVNKRKX-YQRDHHIGSA-N.pdb
REMARK                            x       y       z     vdW  Elec       q    Type
REMARK                         _______ _______ _______ _____ _____    ______ ____
ROOT
ATOM      1  H   UNK    1       -4.624   4.440   0.000  0.00  0.00    +0.000 HD
ENDROOT
TORSDOF 0
REMARK  Name = molecules/XXXSJQLZVNKRKX-YQRDHHIGSA-N.pdb
REMARK                            x       y       z     vdW  Elec       q    Type
REMARK                         _______ _______ _______ _____ _____    ______ ____
ROOT
ATOM      1  H   UNK    1      -11.352   5.024   0.000  0.00  0.00    +0.000 HD
ENDROOT
TORSDOF 0
REMARK  Name = molecules/XXXSJQLZVNKRKX-YQRDHHIGSA-N.pdb
REMARK                            x       y       z     vdW  Elec       q    Type
REMARK                         _______ _______ _______ _____ _____    ______ ____
ROOT
ATOM      1  H   UNK    1      -11.654   2.444   0.000  0.00  0.00    +0.000 HD
ENDROOT
TORSDOF 0
REMARK  Name = molecules/XXXSJQLZVNKRKX-YQRDHHIGSA-N.pdb
REMARK                            x       y       z     vdW  Elec       q    Type
REMARK                         _______ _______ _______ _____ _____    ______ ____
ROOT
ATOM      1  H   UNK    1       11.831   0.765   0.000  0.00  0.00    +0.000 HD
ENDROOT
TORSDOF 0
REMARK  Name = molecules/XXXSJQLZVNKRKX-YQRDHHIGSA-N.pdb
REMARK                            x       y       z     vdW  Elec       q    Type
REMARK                         _______ _______ _______ _____ _____    ______ ____
ROOT
ATOM      1  H   UNK    1       16.541   9.632   0.000  0.00  0.00    +0.000 HD
ENDROOT
TORSDOF 0
REMARK  Name = molecules/XXXSJQLZVNKRKX-YQRDHHIGSA-N.pdb
REMARK                            x       y       z     vdW  Elec       q    Type
REMARK                         _______ _______ _______ _____ _____    ______ ____
ROOT
ATOM      1  H   UNK    1       19.121   9.331   0.000  0.00  0.00    +0.000 HD
ENDROOT
TORSDOF 0
REMARK  Name = molecules/XXXSJQLZVNKRKX-YQRDHHIGSA-N.pdb
REMARK                            x       y       z     vdW  Elec       q    Type
REMARK                         _______ _______ _______ _____ _____    ______ ____
ROOT
ATOM      1  H   UNK    1       19.054 -12.357   0.000  0.00  0.00    +0.000 HD
ENDROOT
TORSDOF 0
REMARK  Name = molecules/XXXSJQLZVNKRKX-YQRDHHIGSA-N.pdb
REMARK                            x       y       z     vdW  Elec       q    Type
REMARK                         _______ _______ _______ _____ _____    ______ ____
ROOT
ATOM      1  H   UNK    1       16.473 -12.056   0.000  0.00  0.00    +0.000 HD
ENDROOT
TORSDOF 0
