REMARK  Name = molecules/XYWJNTOURDMTPI-UHFFFAOYSA-N.pdb
REMARK                            x       y       z     vdW  Elec       q    Type
REMARK                         _______ _______ _______ _____ _____    ______ ____
ROOT
ATOM      1  C   LIG    1        0.531  -0.216  -0.146  0.00  0.00    +0.109 A 
ATOM      2  N   LIG    1       -0.290  -1.288   0.024  0.00  0.00    -0.342 N 
ATOM      3  H   LIG    1        0.099  -2.260   0.194  0.00  0.00    +0.167 HD
ATOM      4  C   LIG    1       -1.580  -0.922  -0.065  0.00  0.00    +0.066 A 
ATOM      5  C   LIG    1       -2.780  -1.612   0.033  0.00  0.00    +0.028 A 
ATOM      6  C   LIG    1       -3.990  -0.952  -0.104  0.00  0.00    +0.002 A 
ATOM      7  C   LIG    1       -3.985   0.415  -0.343  0.00  0.00    +0.002 A 
ATOM      8  C   LIG    1       -2.793   1.101  -0.441  0.00  0.00    +0.030 A 
ATOM      9  C   LIG    1       -1.575   0.459  -0.305  0.00  0.00    +0.089 A 
ATOM     10  N   LIG    1       -0.287   0.830  -0.344  0.00  0.00    -0.232 NA
ENDROOT
BRANCH   1  11
ATOM     11  C   LIG    1        2.023  -0.234  -0.107  0.00  0.00    +0.085 C 
BRANCH  11  12
ATOM     12  C   LIG    1        2.564   1.176  -0.243  0.00  0.00    +0.128 C 
BRANCH  12  13
ATOM     13  C   LIG    1        4.049   1.035  -0.192  0.00  0.00    +0.305 C 
ATOM     14  O   LIG    1        4.728   1.244  -1.249  0.00  0.00    -0.251 OA
BRANCH  13  15
ATOM     15  O   LIG    1        4.637   0.676   1.013  0.00  0.00    -0.481 OA
ATOM     16  H   LIG    1        4.807  -0.287   1.285  0.00  0.00    +0.295 HD
ENDBRANCH  13  15
ENDBRANCH  12  13
ENDBRANCH  11  12
ENDBRANCH   1  11
TORSDOF 4
