REMARK  Name = molecules/XZKVIDLLLOUTSS-NSHDSACASA-N.pdb
REMARK                            x       y       z     vdW  Elec       q    Type
REMARK                         _______ _______ _______ _____ _____    ______ ____
ROOT
ATOM      1  N   LIG    1        2.003  -0.154   0.374  0.00  0.00    -0.324 N 
ATOM      2  C   LIG    1        0.587  -0.222   0.265  0.00  0.00    +0.040 C 
ATOM      3  C   LIG    1       -0.368   0.590   0.756  0.00  0.00    +0.076 C 
ATOM      4  C   LIG    1       -1.790   0.279   0.485  0.00  0.00    +0.207 C 
ATOM      5  O   LIG    1       -2.709   1.013   0.929  0.00  0.00    -0.286 OA
ATOM      6  C   LIG    1       -2.136  -0.893  -0.302  0.00  0.00    +0.129 C 
ATOM      7  N   LIG    1       -3.361  -1.193  -0.561  0.00  0.00    -0.175 NA
ATOM      8  C   LIG    1       -1.040  -1.712  -0.792  0.00  0.00    +0.041 C 
ATOM      9  C   LIG    1        0.234  -1.395  -0.523  0.00  0.00    +0.006 C 
ATOM     10  C   LIG    1        1.512  -2.041  -0.886  0.00  0.00    +0.164 C 
ATOM     11  C   LIG    1        2.505  -1.463   0.058  0.00  0.00    +0.141 C 
ENDROOT
BRANCH   7  12
ATOM     12  N   LIG    1       -4.449  -0.540  -0.180  0.00  0.00    -0.190 N 
ATOM     13  C   LIG    1       -5.553   0.123   0.208  0.00  0.00    +0.317 C 
ATOM     14  O   LIG    1       -6.612  -0.362   0.726  0.00  0.00    -0.251 OA
ATOM     15  N   LIG    1       -5.670   1.587   0.067  0.00  0.00    -0.312 N 
ATOM     16  H   LIG    1       -5.766   2.204   0.877  0.00  0.00    +0.147 HD
ATOM     17  H   LIG    1       -5.652   1.972  -0.895  0.00  0.00    +0.147 HD
ATOM     18  H   LIG    1       -4.975  -1.733   0.198  0.00  0.00    +0.179 HD
ENDBRANCH   7  12
BRANCH   1  19
ATOM     19  C   LIG    1        2.789   0.995   0.736  0.00  0.00    +0.067 C 
ATOM     20  C   LIG    1        4.264   0.656   0.648  0.00  0.00    +0.027 C 
ATOM     21  C   LIG    1        2.567   2.155  -0.231  0.00  0.00    +0.027 C 
ENDBRANCH   1  19
BRANCH  10  22
ATOM     22  O   LIG    1        1.821  -1.681  -2.191  0.00  0.00    -0.386 OA
ATOM     23  H   LIG    1        1.716  -0.722  -2.284  0.00  0.00    +0.210 HD
ENDBRANCH  10  22
TORSDOF 3
