REMARK  Name = molecules/XZSMZRXAEFNJCU-UHFFFAOYSA-N.pdb
REMARK                            x       y       z     vdW  Elec       q    Type
REMARK                         _______ _______ _______ _____ _____    ______ ____
ROOT
ATOM      1  C   LIG    1       -3.728   2.012  -0.127  0.00  0.00    +0.019 A 
ATOM      2  C   LIG    1       -4.847   1.326   0.273  0.00  0.00    +0.012 A 
ATOM      3  C   LIG    1       -4.904  -0.028   0.062  0.00  0.00    +0.017 A 
ATOM      4  C   LIG    1       -3.872  -0.682  -0.530  0.00  0.00    +0.034 A 
ATOM      5  S   LIG    1       -4.059  -2.432  -0.727  0.00  0.00    -0.089 S 
ATOM      6  C   LIG    1       -2.538  -2.997  -1.446  0.00  0.00    +0.019 C 
ATOM      7  C   LIG    1       -2.443  -4.335  -1.665  0.00  0.00    +0.062 C 
ATOM      8  C   LIG    1       -1.306  -4.851  -2.238  0.00  0.00    -0.017 C 
ATOM      9  C   LIG    1       -0.299  -4.003  -2.575  0.00  0.00    -0.002 C 
ATOM     10  C   LIG    1       -0.429  -2.652  -2.339  0.00  0.00    +0.024 C 
ATOM     11  C   LIG    1       -1.562  -2.096  -1.761  0.00  0.00    +0.044 C 
ATOM     12  N   LIG    1       -1.601  -0.692  -1.548  0.00  0.00    -0.298 N 
ATOM     13  C   LIG    1       -2.725  -0.065  -0.956  0.00  0.00    +0.049 A 
ATOM     14  C   LIG    1       -2.690   1.296  -0.735  0.00  0.00    +0.036 A 
ENDROOT
BRANCH   1  15
ATOM     15  C   LIG    1       -3.609   3.468   0.095  0.00  0.00    +0.163 C 
ATOM     16  O   LIG    1       -2.592   4.118  -0.224  0.00  0.00    -0.292 OA
BRANCH  15  18
ATOM     17  C   LIG    1       -4.954   3.809   2.163  0.00  0.00    +0.012 C 
ATOM     18  C   LIG    1       -4.754   4.156   0.723  0.00  0.00    +0.076 C 
ENDBRANCH  15  18
ENDBRANCH   1  15
BRANCH  12  19
ATOM     19  C   LIG    1       -0.426   0.081  -1.933  0.00  0.00    +0.112 C 
BRANCH  19  20
ATOM     20  C   LIG    1        0.700   0.014  -0.970  0.00  0.00    +0.035 C 
BRANCH  20  21
ATOM     21  C   LIG    1        0.326   0.518   0.413  0.00  0.00    +0.086 C 
BRANCH  21  22
ATOM     22  N   LIG    1        1.502   0.416   1.249  0.00  0.00    -0.300 NA
ATOM     23  C   LIG    1        1.878  -0.913   1.564  0.00  0.00    +0.100 C 
ATOM     24  C   LIG    1        3.209  -1.371   1.077  0.00  0.00    +0.100 C 
ATOM     25  N   LIG    1        4.267  -0.395   1.233  0.00  0.00    -0.298 NA
ATOM     26  C   LIG    1        3.867   0.829   0.581  0.00  0.00    +0.100 C 
ATOM     27  C   LIG    1        2.524   1.327   0.927  0.00  0.00    +0.100 C 
BRANCH  25  28
ATOM     28  C   LIG    1        5.417  -0.892   0.477  0.00  0.00    +0.112 C 
BRANCH  28  29
ATOM     29  C   LIG    1        6.616   0.002   0.641  0.00  0.00    +0.171 C 
BRANCH  29  30
ATOM     30  O   LIG    1        7.661  -0.559  -0.119  0.00  0.00    -0.394 OA
ATOM     31  H   LIG    1        8.470  -0.720   0.452  0.00  0.00    +0.209 HD
ENDBRANCH  29  30
ENDBRANCH  28  29
ENDBRANCH  25  28
ENDBRANCH  21  22
ENDBRANCH  20  21
ENDBRANCH  19  20
ENDBRANCH  12  19
TORSDOF 9
