REMARK  Name = molecules/XZXHXSATPCNXJR-ZIADKAODSA-N.pdb
REMARK                            x       y       z     vdW  Elec       q    Type
REMARK                         _______ _______ _______ _____ _____    ______ ____
ROOT
ATOM      1  C   LIG    1        3.041  -1.573  -0.904  0.00  0.00    +0.045 C 
ATOM      2  N   LIG    1        1.825  -1.998  -1.548  0.00  0.00    -0.357 N 
ATOM      3  H   LIG    1        1.913  -2.759  -2.253  0.00  0.00    +0.166 HD
ENDROOT
BRANCH   1  11
ATOM      4  C   LIG    1        5.622  -0.205   0.276  0.00  0.00    +0.008 A 
ATOM      5  C   LIG    1        6.737   0.584   0.558  0.00  0.00    +0.015 A 
ATOM      6  C   LIG    1        7.043   1.699  -0.174  0.00  0.00    +0.061 A 
ATOM      7  C   LIG    1        6.214   2.037  -1.215  0.00  0.00    +0.038 A 
ATOM      8  C   LIG    1        5.091   1.287  -1.540  0.00  0.00    +0.039 A 
ATOM      9  N   LIG    1        4.097   1.456  -2.548  0.00  0.00    -0.284 N 
ATOM     10  C   LIG    1        3.156   0.404  -2.425  0.00  0.00    +0.235 C 
ATOM     11  C   LIG    1        3.600  -0.441  -1.294  0.00  0.00    +0.137 C 
ATOM     12  O   LIG    1        2.130   0.160  -3.089  0.00  0.00    -0.274 OA
ATOM     13  H   LIG    1        4.042   2.215  -3.271  0.00  0.00    +0.155 HD
ATOM     14  C   LIG    1        4.814   0.158  -0.774  0.00  0.00    -0.004 A 
BRANCH   6  15
ATOM     15  C   LIG    1        8.225   2.475   0.166  0.00  0.00    +0.339 C 
ATOM     16  O   LIG    1        8.532   3.512  -0.486  0.00  0.00    -0.245 OA
BRANCH  15  17
ATOM     17  O   LIG    1        9.049   2.110   1.203  0.00  0.00    -0.464 OA
ATOM     18  C   LIG    1       10.205   2.768   1.625  0.00  0.00    +0.280 C 
ENDBRANCH  15  17
ENDBRANCH   6  15
ENDBRANCH   1  11
BRANCH   1  19
ATOM     19  C   LIG    1        3.536  -2.455   0.118  0.00  0.00    -0.004 A 
ATOM     20  C   LIG    1        2.905  -2.633   1.321  0.00  0.00    +0.009 A 
ATOM     21  C   LIG    1        3.337  -3.544   2.267  0.00  0.00    +0.001 A 
ATOM     22  C   LIG    1        4.451  -4.301   1.974  0.00  0.00    +0.000 A 
ATOM     23  C   LIG    1        5.115  -4.153   0.774  0.00  0.00    +0.001 A 
ATOM     24  C   LIG    1        4.664  -3.240  -0.147  0.00  0.00    +0.009 A 
ENDBRANCH   1  19
BRANCH   2  25
ATOM     25  C   LIG    1        0.584  -1.393  -1.219  0.00  0.00    +0.040 A 
ATOM     26  C   LIG    1        0.456  -0.334  -0.355  0.00  0.00    +0.027 A 
ATOM     27  C   LIG    1       -0.792   0.234  -0.061  0.00  0.00    +0.025 A 
ATOM     28  C   LIG    1       -1.940  -0.256  -0.634  0.00  0.00    +0.036 A 
ATOM     29  C   LIG    1       -1.821  -1.317  -1.502  0.00  0.00    +0.025 A 
ATOM     30  C   LIG    1       -0.596  -1.879  -1.794  0.00  0.00    +0.027 A 
BRANCH  28  31
ATOM     31  N   LIG    1       -3.233   0.338  -0.330  0.00  0.00    -0.273 N 
ATOM     32  C   LIG    1       -3.598   0.513   0.987  0.00  0.00    +0.234 C 
ATOM     33  O   LIG    1       -2.688   0.308   1.899  0.00  0.00    -0.274 OA
ATOM     34  C   LIG    1       -3.984   0.740  -1.498  0.00  0.00    +0.138 C 
BRANCH  32  35
ATOM     35  C   LIG    1       -4.885   0.912   1.541  0.00  0.00    +0.181 C 
BRANCH  35  36
ATOM     36  N   LIG    1       -5.997   1.047   0.644  0.00  0.00    -0.292 NA
ATOM     37  C   LIG    1       -7.010   1.801   1.373  0.00  0.00    +0.100 C 
ATOM     38  C   LIG    1       -8.034   0.907   1.986  0.00  0.00    +0.099 C 
ATOM     39  N   LIG    1       -8.904   0.401   0.936  0.00  0.00    -0.303 NA
ATOM     40  C   LIG    1       -9.701   1.515   0.413  0.00  0.00    +0.105 C 
ATOM     41  C   LIG    1       -8.033  -0.129  -0.093  0.00  0.00    +0.099 C 
ATOM     42  C   LIG    1       -6.611  -0.259   0.385  0.00  0.00    +0.100 C 
ENDBRANCH  35  36
ENDBRANCH  32  35
ENDBRANCH  28  31
ENDBRANCH   2  25
TORSDOF 8
