REMARK  Name = molecules/YAADDGYZMCRWRC-CIIFZSTISA-N.pdb
REMARK                            x       y       z     vdW  Elec       q    Type
REMARK                         _______ _______ _______ _____ _____    ______ ____
ROOT
ATOM      1  N   LIG    1       37.724  17.417   0.000  0.00  0.00    -0.138 NA
ATOM      2  C   LIG    1       36.297  17.881   0.000  0.00  0.00    +0.114 C 
ATOM      3  C   LIG    1       36.761  19.307   0.000  0.00  0.00    -0.005 C 
ENDROOT
BRANCH   3   4
ATOM      4  C   LIG    1       37.224  20.734   0.000  0.00  0.00    +0.007 C 
ATOM      5  C   LIG    1       35.798  21.198   0.000  0.00  0.00    +0.011 C 
ATOM      6  C   LIG    1       37.688  22.161   0.000  0.00  0.00    +0.011 C 
ENDBRANCH   3   4
TORSDOF 1
REMARK  Name = molecules/YAADDGYZMCRWRC-CIIFZSTISA-N.pdb
REMARK                            x       y       z     vdW  Elec       q    Type
REMARK                         _______ _______ _______ _____ _____    ______ ____
ROOT
ATOM      1  C   LIG    1       26.770  17.033   0.000  0.00  0.00    +0.129 C 
ATOM      2  N   LIG    1       28.197  16.570   0.000  0.00  0.00    -0.137 NA
ENDROOT
BRANCH   1   3
ATOM      3  C   LIG    1       26.306  15.607   0.000  0.00  0.00    +0.137 C 
BRANCH   3   4
ATOM      4  N   LIG    1       24.839  15.295   0.000  0.00  0.00    -0.282 NA
ATOM      5  C   LIG    1       24.376  13.868   0.000  0.00  0.00    +0.079 C 
ATOM      6  C   LIG    1       25.802  13.405   0.000  0.00  0.00    +0.052 C 
ENDBRANCH   3   4
ENDBRANCH   1   3
BRANCH   1   7
ATOM      7  C   LIG    1       27.233  18.460   0.000  0.00  0.00    +0.026 C 
BRANCH   7   8
ATOM      8  C   LIG    1       27.697  19.887   0.000  0.00  0.00    +0.105 C 
BRANCH   8   9
ATOM      9  C   LIG    1       28.161  21.313   0.000  0.00  0.00    +0.252 C 
ATOM     10  O   LIG    1       29.628  21.625   0.000  0.00  0.00    -0.272 OA
ATOM     11  N   LIG    1       27.157  22.428   0.000  0.00  0.00    -0.088 NA
ENDBRANCH   8   9
ENDBRANCH   7   8
ENDBRANCH   1   7
TORSDOF 5
REMARK  Name = molecules/YAADDGYZMCRWRC-CIIFZSTISA-N.pdb
REMARK                            x       y       z     vdW  Elec       q    Type
REMARK                         _______ _______ _______ _____ _____    ______ ____
ROOT
ATOM      1  C   LIG    1       -1.844   6.461   0.000  0.00  0.00    +0.193 C 
ENDROOT
BRANCH   1   3
ATOM      2  N   LIG    1       -0.105   4.530   0.000  0.00  0.00    -0.200 NA
ATOM      3  C   LIG    1       -0.417   5.997   0.000  0.00  0.00    +0.257 C 
ATOM      4  O   LIG    1        0.812   6.858   0.000  0.00  0.00    -0.272 OA
BRANCH   2   5
ATOM      5  C   LIG    1        1.321   4.067   0.000  0.00  0.00    +0.169 C 
BRANCH   5   6
ATOM      6  C   LIG    1        1.785   5.493   0.000  0.00  0.00    +0.274 C 
BRANCH   6   7
ATOM      7  O   LIG    1        1.305   6.563   0.000  0.00  0.00    -0.201 OA
BRANCH   7   8
ATOM      8  O   LIG    1        1.219   7.215   0.000  0.00  0.00    -0.224 OA
ATOM      9  C   LIG    1        2.289   7.695   0.000  0.00  0.00    +0.225 C 
ENDBRANCH   7   8
ENDBRANCH   6   7
BRANCH   6  10
ATOM     10  N   LIG    1        3.252   5.805   0.000  0.00  0.00    -0.053 NA
BRANCH  10  11
ATOM     11  O   LIG    1        3.915   6.106   0.000  0.00  0.00    -0.293 OA
ATOM     12  H   LIG    1        4.679   5.342   0.000  0.00  0.00    +0.238 HD
ENDBRANCH  10  11
ENDBRANCH   6  10
ENDBRANCH   5   6
ENDBRANCH   2   5
ENDBRANCH   1   3
BRANCH   1  13
ATOM     13  N   LIG    1       -1.380   7.888   0.000  0.00  0.00    -0.272 NA
ATOM     14  C   LIG    1        0.087   8.199   0.000  0.00  0.00    +0.079 C 
BRANCH  14  15
ATOM     15  C   LIG    1        0.551   9.626   0.000  0.00  0.00    +0.146 C 
ATOM     16  N   LIG    1        1.977   9.162   0.000  0.00  0.00    -0.133 NA
BRANCH  15  17
ATOM     17  C   LIG    1        1.014  11.053   0.000  0.00  0.00    +0.017 C 
ATOM     18  C   LIG    1        1.478  12.479   0.000  0.00  0.00    +0.010 C 
ENDBRANCH  15  17
ENDBRANCH  14  15
ENDBRANCH   1  13
BRANCH   1  19
ATOM     19  C   LIG    1       -3.270   6.925   0.000  0.00  0.00    +0.039 C 
BRANCH  19  20
ATOM     20  C   LIG    1       -4.697   7.388   0.000  0.00  0.00    +0.043 C 
BRANCH  20  21
ATOM     21  C   LIG    1       -6.123   7.851   0.000  0.00  0.00    +0.244 C 
BRANCH  21  22
ATOM     22  N   LIG    1       -7.550   8.315   0.000  0.00  0.00    -0.102 NA
BRANCH  22  23
ATOM     23  C   LIG    1       -7.862   9.782   0.000  0.00  0.00    +0.534 C 
ATOM     24  N   LIG    1       -9.289  10.246   0.000  0.00  0.00    +0.135 NA
ATOM     25  N   LIG    1       -6.747  10.786   0.000  0.00  0.00    +0.135 NA
ENDBRANCH  22  23
ENDBRANCH  21  22
ENDBRANCH  20  21
ENDBRANCH  19  20
ENDBRANCH   1  19
TORSDOF 15
REMARK  Name = molecules/YAADDGYZMCRWRC-CIIFZSTISA-N.pdb
REMARK                            x       y       z     vdW  Elec       q    Type
REMARK                         _______ _______ _______ _____ _____    ______ ____
ROOT
ATOM      1  C   LIG    1       72.623  35.199   0.000  0.00  0.00    +0.000 C 
ENDROOT
TORSDOF 0
REMARK  Name = molecules/YAADDGYZMCRWRC-CIIFZSTISA-N.pdb
REMARK                            x       y       z     vdW  Elec       q    Type
REMARK                         _______ _______ _______ _____ _____    ______ ____
ROOT
ATOM      1  C   LIG    1       13.078   6.921   0.000  0.00  0.00    +0.049 C 
ENDROOT
BRANCH   1   2
ATOM      2  C   LIG    1       14.505   6.458   0.000  0.00  0.00    -0.042 C 
ATOM      3  C   LIG    1       14.816   4.991   0.000  0.00  0.00    -0.014 C 
BRANCH   3   4
ATOM      4  C   LIG    1       16.243   4.527   0.000  0.00  0.00    +0.045 C 
BRANCH   4   5
ATOM      5  C   LIG    1       17.358   5.531   0.000  0.00  0.00    -0.018 C 
ATOM      6  C   LIG    1       17.046   6.998   0.000  0.00  0.00    -0.004 C 
ENDBRANCH   4   5
ENDBRANCH   3   4
ENDBRANCH   1   2
BRANCH   1   7
ATOM      7  C   LIG    1       11.651   7.385   0.000  0.00  0.00    +0.109 C 
BRANCH   7   8
ATOM      8  N   LIG    1       12.115   8.812   0.000  0.00  0.00    -0.222 NA
ATOM      9  C   LIG    1       13.582   9.123   0.000  0.00  0.00    +0.107 C 
ENDBRANCH   7   8
BRANCH   7  10
ATOM     10  C   LIG    1       10.225   7.848   0.000  0.00  0.00    +0.121 C 
ATOM     11  N   LIG    1        9.110   6.845   0.000  0.00  0.00    -0.130 NA
ENDBRANCH   7  10
ENDBRANCH   1   7
TORSDOF 6
REMARK  Name = molecules/YAADDGYZMCRWRC-CIIFZSTISA-N.pdb
REMARK                            x       y       z     vdW  Elec       q    Type
REMARK                         _______ _______ _______ _____ _____    ______ ____
ROOT
ATOM      1  N   LIG    1       68.572  35.516   0.000  0.00  0.00    -0.159 NA
ATOM      2  H   LIG    1       69.260  34.522   0.000  0.00  0.00    +0.157 HD
ENDROOT
BRANCH   1   3
ATOM      3  O   LIG    1       69.247  35.525   0.000  0.00  0.00    -0.288 OA
ATOM      4  C   LIG    1       69.770  36.126   0.000  0.00  0.00    +0.208 C 
ENDBRANCH   1   3
BRANCH   1   5
ATOM      5  C   LIG    1       67.568  36.630   0.000  0.00  0.00    +0.280 C 
ATOM      6  O   LIG    1       66.150  36.142   0.000  0.00  0.00    -0.199 OA
ENDBRANCH   1   5
TORSDOF 2
REMARK  Name = molecules/YAADDGYZMCRWRC-CIIFZSTISA-N.pdb
REMARK                            x       y       z     vdW  Elec       q    Type
REMARK                         _______ _______ _______ _____ _____    ______ ____
ROOT
ATOM      1  C   LIG    1       71.196  35.663   0.000  0.00  0.00    +0.000 C 
ENDROOT
TORSDOF 0
REMARK  Name = molecules/YAADDGYZMCRWRC-CIIFZSTISA-N.pdb
REMARK                            x       y       z     vdW  Elec       q    Type
REMARK                         _______ _______ _______ _____ _____    ______ ____
ROOT
ATOM      1  C   LIG    1       30.541   7.922   0.000  0.00  0.00    +0.188 C 
ENDROOT
BRANCH   1   2
ATOM      2  C   LIG    1       29.426   6.918   0.000  0.00  0.00    +0.188 C 
BRANCH   2   3
ATOM      3  O   LIG    1       28.311   5.915   0.000  0.00  0.00    -0.368 OA
BRANCH   3   4
ATOM      4  C   LIG    1       26.885   6.378   0.000  0.00  0.00    +0.257 C 
BRANCH   4   5
ATOM      5  C   LIG    1       25.458   6.842   0.000  0.00  0.00    +0.258 C 
ATOM      6  N   LIG    1       25.146   8.309   0.000  0.00  0.00    -0.216 NA
ATOM      7  O   LIG    1       24.344   5.838   0.000  0.00  0.00    -0.272 OA
BRANCH   6   8
ATOM      8  C   LIG    1       23.720   8.773   0.000  0.00  0.00    +0.131 C 
BRANCH   8   9
ATOM      9  C   LIG    1       22.293   9.236   0.000  0.00  0.00    +0.021 C 
BRANCH   9  10
ATOM     10  C   LIG    1       20.867   9.700   0.000  0.00  0.00    +0.007 C 
BRANCH  10  11
ATOM     11  C   LIG    1       19.440  10.163   0.000  0.00  0.00    +0.015 C 
BRANCH  11  12
ATOM     12  C   LIG    1       18.014  10.627   0.000  0.00  0.00    +0.110 C 
BRANCH  12  13
ATOM     13  N   LIG    1       18.477  12.053   0.000  0.00  0.00    -0.222 NA
ATOM     14  C   LIG    1       19.944  12.365   0.000  0.00  0.00    +0.107 C 
ENDBRANCH  12  13
BRANCH  12  15
ATOM     15  C   LIG    1       16.587  11.090   0.000  0.00  0.00    +0.136 C 
BRANCH  15  16
ATOM     16  N   LIG    1       15.472  10.086   0.000  0.00  0.00    -0.282 NA
ATOM     17  C   LIG    1       14.046  10.550   0.000  0.00  0.00    +0.083 C 
BRANCH  17  18
ATOM     18  C   LIG    1       14.509  11.977   0.000  0.00  0.00    +0.049 C 
BRANCH  18  19
ATOM     19  C   LIG    1       14.973  13.403   0.000  0.00  0.00    +0.134 C 
BRANCH  19  20
ATOM     20  C   LIG    1       15.436  14.830   0.000  0.00  0.00    +0.357 C 
ATOM     21  O   LIG    1       14.432  15.944   0.000  0.00  0.00    -0.246 OA
ATOM     22  O   LIG    1       16.904  15.142   0.000  0.00  0.00    -0.246 OA
ENDBRANCH  19  20
ENDBRANCH  18  19
ENDBRANCH  17  18
ENDBRANCH  15  16
ENDBRANCH  12  15
ENDBRANCH  11  12
ENDBRANCH  10  11
ENDBRANCH   9  10
ENDBRANCH   8   9
ENDBRANCH   6   8
ENDBRANCH   4   5
ENDBRANCH   3   4
ENDBRANCH   2   3
ENDBRANCH   1   2
BRANCH   1  23
ATOM     23  O   LIG    1       31.656   8.926   0.000  0.00  0.00    -0.376 OA
BRANCH  23  24
ATOM     24  C   LIG    1       33.082   8.462   0.000  0.00  0.00    +0.180 C 
BRANCH  24  25
ATOM     25  C   LIG    1       34.509   7.999   0.000  0.00  0.00    +0.159 C 
BRANCH  25  26
ATOM     26  N   LIG    1       35.935   7.535   0.000  0.00  0.00    -0.214 NA
ATOM     27  C   LIG    1       37.050   8.539   0.000  0.00  0.00    +0.258 C 
ATOM     28  O   LIG    1       36.738  10.006   0.000  0.00  0.00    -0.272 OA
BRANCH  27  29
ATOM     29  C   LIG    1       38.477   8.075   0.000  0.00  0.00    +0.257 C 
BRANCH  29  30
ATOM     30  O   LIG    1       39.903   7.612   0.000  0.00  0.00    -0.368 OA
BRANCH  30  31
ATOM     31  C   LIG    1       40.215   6.145   0.000  0.00  0.00    +0.188 C 
BRANCH  31  32
ATOM     32  C   LIG    1       40.527   4.678   0.000  0.00  0.00    +0.188 C 
BRANCH  32  33
ATOM     33  O   LIG    1       40.839   3.210   0.000  0.00  0.00    -0.376 OA
BRANCH  33  34
ATOM     34  C   LIG    1       42.266   2.747   0.000  0.00  0.00    +0.183 C 
BRANCH  34  35
ATOM     35  C   LIG    1       43.692   2.283   0.000  0.00  0.00    +0.173 C 
BRANCH  35  36
ATOM     36  N   LIG    1       45.119   1.820   0.000  0.00  0.00    -0.247 NA
ATOM     37  C   LIG    1       45.431   0.352   0.000  0.00  0.00    +0.226 C 
BRANCH  37  38
ATOM     38  C   LIG    1       46.857  -0.111   0.000  0.00  0.00    +0.172 C 
ATOM     39  N   LIG    1       46.394  -1.538   0.000  0.00  0.00    -0.272 NA
ATOM     40  C   LIG    1       47.397  -2.652   0.000  0.00  0.00    +0.151 C 
ENDBRANCH  37  38
BRANCH  37  41
ATOM     41  O   LIG    1       44.316  -0.651   0.000  0.00  0.00    -0.492 OA
ATOM     42  H   LIG    1       44.926  -1.849   0.000  0.00  0.00    +0.294 HD
ENDBRANCH  37  41
ENDBRANCH  35  36
ENDBRANCH  34  35
ENDBRANCH  33  34
ENDBRANCH  32  33
ENDBRANCH  31  32
ENDBRANCH  30  31
ENDBRANCH  29  30
ENDBRANCH  27  29
ENDBRANCH  25  26
ENDBRANCH  24  25
ENDBRANCH  23  24
ENDBRANCH   1  23
TORSDOF 29
REMARK  Name = molecules/YAADDGYZMCRWRC-CIIFZSTISA-N.pdb
REMARK                            x       y       z     vdW  Elec       q    Type
REMARK                         _______ _______ _______ _____ _____    ______ ____
ROOT
ATOM      1  N   LIG    1       69.458  37.594   0.000  0.00  0.00    -0.083 NA
ATOM      2  C   LIG    1       70.656  38.204   0.000  0.00  0.00    +0.143 C 
ENDROOT
BRANCH   1   3
ATOM      3  O   LIG    1       69.157  38.257   0.000  0.00  0.00    -0.277 OA
ATOM      4  C   LIG    1       68.031  38.057   0.000  0.00  0.00    +0.217 C 
ENDBRANCH   1   3
TORSDOF 1
REMARK  Name = molecules/YAADDGYZMCRWRC-CIIFZSTISA-N.pdb
REMARK                            x       y       z     vdW  Elec       q    Type
REMARK                         _______ _______ _______ _____ _____    ______ ____
ROOT
ATOM      1  N   LIG    1       69.693  40.094   0.000  0.00  0.00    +0.381 N 
ATOM      2  C   LIG    1       68.958  40.910   0.000  0.00  0.00    -0.106 C 
ATOM      3  C   LIG    1       68.495  39.484   0.000  0.00  0.00    -0.106 C 
ATOM      4  H   LIG    1       70.455  40.806   0.000  0.00  0.00    -0.085 HD
ATOM      5  H   LIG    1       69.967  39.197   0.000  0.00  0.00    -0.085 HD
ENDROOT
TORSDOF 0
REMARK  Name = molecules/YAADDGYZMCRWRC-CIIFZSTISA-N.pdb
REMARK                            x       y       z     vdW  Elec       q    Type
REMARK                         _______ _______ _______ _____ _____    ______ ____
ROOT
ATOM      1  N   LIG    1       -5.608   0.855   0.000  0.00  0.00    +0.000 NA
ENDROOT
TORSDOF 0
REMARK  Name = molecules/YAADDGYZMCRWRC-CIIFZSTISA-N.pdb
REMARK                            x       y       z     vdW  Elec       q    Type
REMARK                         _______ _______ _______ _____ _____    ______ ____
ROOT
ATOM      1  C   LIG    1        6.569   6.305   0.000  0.00  0.00    +0.110 C 
ENDROOT
BRANCH   1   2
ATOM      2  N   LIG    1        5.753   5.570   0.000  0.00  0.00    -0.243 NA
BRANCH   2   3
ATOM      3  C   LIG    1        6.105   4.878   0.000  0.00  0.00    +0.035 C 
ATOM      4  C   LIG    1        5.289   4.143   0.000  0.00  0.00    +0.012 C 
ATOM      5  C   LIG    1        6.716   3.680   0.000  0.00  0.00    +0.059 C 
ENDBRANCH   2   3
ENDBRANCH   1   2
BRANCH   1   6
ATOM      6  C   LIG    1        7.220   5.882   0.000  0.00  0.00    +0.064 C 
BRANCH   6   7
ATOM      7  C   LIG    1        7.995   5.841   0.000  0.00  0.00    +0.135 C 
BRANCH   7   8
ATOM      8  O   LIG    1        8.224   4.767   0.000  0.00  0.00    -0.382 OA
ATOM      9  H   LIG    1        7.465   4.244   0.000  0.00  0.00    +0.210 HD
ENDBRANCH   7   8
ENDBRANCH   6   7
ENDBRANCH   1   6
TORSDOF 5
REMARK  Name = molecules/YAADDGYZMCRWRC-CIIFZSTISA-N.pdb
REMARK                            x       y       z     vdW  Elec       q    Type
REMARK                         _______ _______ _______ _____ _____    ______ ____
ROOT
ATOM      1  N   LIG    1       53.453  25.867   0.000  0.00  0.00    +0.000 NA
ENDROOT
TORSDOF 0
REMARK  Name = molecules/YAADDGYZMCRWRC-CIIFZSTISA-N.pdb
REMARK                            x       y       z     vdW  Elec       q    Type
REMARK                         _______ _______ _______ _____ _____    ______ ____
ROOT
ATOM      1  C   LIG    1       62.673  33.701   0.000  0.00  0.00    -0.024 A 
ATOM      2  C   LIG    1       64.140  34.013   0.000  0.00  0.00    +0.008 A 
ATOM      3  C   LIG    1       64.604  35.439   0.000  0.00  0.00    +0.001 A 
ATOM      4  C   LIG    1       63.600  36.554   0.000  0.00  0.00    +0.000 A 
ATOM      5  C   LIG    1       62.133  36.242   0.000  0.00  0.00    +0.001 A 
ATOM      6  C   LIG    1       61.669  34.815   0.000  0.00  0.00    +0.008 A 
ENDROOT
BRANCH   1   9
ATOM      7  N   LIG    1       63.172  30.384   0.000  0.00  0.00    -0.138 NA
ATOM      8  C   LIG    1       61.746  30.848   0.000  0.00  0.00    +0.118 C 
ATOM      9  C   LIG    1       62.209  32.274   0.000  0.00  0.00    +0.026 C 
ENDBRANCH   1   9
TORSDOF 1
REMARK  Name = molecules/YAADDGYZMCRWRC-CIIFZSTISA-N.pdb
REMARK                            x       y       z     vdW  Elec       q    Type
REMARK                         _______ _______ _______ _____ _____    ______ ____
ROOT
ATOM      1  N   LIG    1       71.660  37.089   0.000  0.00  0.00    +0.000 NA
ENDROOT
TORSDOF 0
REMARK  Name = molecules/YAADDGYZMCRWRC-CIIFZSTISA-N.pdb
REMARK                            x       y       z     vdW  Elec       q    Type
REMARK                         _______ _______ _______ _____ _____    ______ ____
ROOT
ATOM      1  N   ALA A  1       47.091  22.626   0.000  0.00  0.00    -0.278 NA
ATOM      2  C   UNK A  0       48.558  22.938   0.000  0.00  0.00    +0.077 C 
ENDROOT
BRANCH   1   3
ATOM      3  CA  ALA A  1       46.627  21.199   0.000  0.00  0.00    +0.148 C 
ATOM      4  CB  ALA A  1       45.201  21.663   0.000  0.00  0.00    +0.022 C 
BRANCH   3   5
ATOM      5  C   ALA A  1       48.054  20.736   0.000  0.00  0.00    +0.215 C 
ATOM      6  O   ALA A  1       49.480  20.272   0.000  0.00  0.00    -0.226 OA
ENDBRANCH   3   5
ENDBRANCH   1   3
BRANCH   2   7
ATOM      7  C   UNK A  0       49.022  24.364   0.000  0.00  0.00    +0.127 C 
BRANCH   7   8
ATOM      8  C   UNK A  0       49.485  25.791   0.000  0.00  0.00    +0.022 C 
ATOM      9  C   UNK A  0       49.949  27.217   0.000  0.00  0.00    +0.002 C 
ENDBRANCH   7   8
BRANCH   7  10
ATOM     10  N   UNK A  0       50.448  23.901   0.000  0.00  0.00    -0.220 NA
BRANCH  10  11
ATOM     11  C   UNK A  0       50.912  25.327   0.000  0.00  0.00    +0.080 C 
ATOM     12  C   UNK A  0       51.563  24.904   0.000  0.00  0.00    +0.029 C 
ENDBRANCH  10  11
ENDBRANCH   7  10
ENDBRANCH   2   7
TORSDOF 6
REMARK  Name = molecules/YAADDGYZMCRWRC-CIIFZSTISA-N.pdb
REMARK                            x       y       z     vdW  Elec       q    Type
REMARK                         _______ _______ _______ _____ _____    ______ ____
ROOT
ATOM      1  C   LIG    1       40.265  17.957   0.000  0.00  0.00    +0.137 C 
ATOM      2  C   LIG    1       38.839  18.421   0.000  0.00  0.00    +0.024 C 
ENDROOT
BRANCH   1   3
ATOM      3  N   LIG    1       40.729  19.384   0.000  0.00  0.00    -0.277 NA
ATOM      4  C   LIG    1       42.196  19.696   0.000  0.00  0.00    +0.082 C 
BRANCH   4   5
ATOM      5  CA  LIG    1       42.659  21.122   0.000  0.00  0.00    +0.177 C 
ATOM      6  N   LIG    1       44.086  20.659   0.000  0.00  0.00    -0.130 NA
BRANCH   5   7
ATOM      7  C   LIG    1       43.123  22.549   0.000  0.00  0.00    +0.216 C 
ATOM      8  O   LIG    1       43.586  23.976   0.000  0.00  0.00    -0.226 OA
ENDBRANCH   5   7
ENDBRANCH   4   5
ENDBRANCH   1   3
BRANCH   1   9
ATOM      9  C   LIG    1       41.692  17.494   0.000  0.00  0.00    +0.004 C 
ATOM     10  C   LIG    1       43.118  17.030   0.000  0.00  0.00    -0.038 C 
BRANCH  10  11
ATOM     11  C   LIG    1       43.430  15.563   0.000  0.00  0.00    +0.056 C 
BRANCH  11  12
ATOM     12  C   LIG    1       44.857  15.100   0.000  0.00  0.00    +0.028 C 
ATOM     13  C   LIG    1       45.971  16.103   0.000  0.00  0.00    +0.157 C 
ATOM     14  O   LIG    1       47.398  15.640   0.000  0.00  0.00    -0.293 OA
ATOM     15  C   LIG    1       45.660  17.571   0.000  0.00  0.00    +0.082 C 
ENDBRANCH  11  12
ENDBRANCH  10  11
ENDBRANCH   1   9
TORSDOF 6
REMARK  Name = molecules/YAADDGYZMCRWRC-CIIFZSTISA-N.pdb
REMARK                            x       y       z     vdW  Elec       q    Type
REMARK                         _______ _______ _______ _____ _____    ______ ____
ROOT
ATOM      1  N   GLY A  1       56.810  27.142   0.000  0.00  0.00    -0.134 NA
ATOM      2  CA  GLY A  1       55.384  27.606   0.000  0.00  0.00    +0.160 C 
ATOM      3  C   GLY A  1       55.847  29.032   0.000  0.00  0.00    +0.269 C 
ATOM      4  O   GLY A  1       56.311  30.459   0.000  0.00  0.00    -0.295 OA
ENDROOT
TORSDOF 0
REMARK  Name = molecules/YAADDGYZMCRWRC-CIIFZSTISA-N.pdb
REMARK                            x       y       z     vdW  Elec       q    Type
REMARK                         _______ _______ _______ _____ _____    ______ ____
ROOT
ATOM      1  N   LIG    1       -2.023   1.056   0.000  0.00  0.00    -0.156 NA
ATOM      2  C   LIG    1       -1.032   0.750   0.000  0.00  0.00    +0.156 C 
ENDROOT
TORSDOF 0
REMARK  Name = molecules/YAADDGYZMCRWRC-CIIFZSTISA-N.pdb
REMARK                            x       y       z     vdW  Elec       q    Type
REMARK                         _______ _______ _______ _____ _____    ______ ____
ROOT
ATOM      1  O   LIG    1       -7.152   4.511   0.000  0.00  0.00    -0.246 OA
ATOM      2  C   LIG    1       -7.616   3.084   0.000  0.00  0.00    +0.357 C 
ATOM      3  O   LIG    1       -9.083   2.772   0.000  0.00  0.00    -0.246 OA
ATOM      4  C   LIG    1       -6.612   1.970   0.000  0.00  0.00    +0.136 C 
ENDROOT
TORSDOF 0
REMARK  Name = molecules/YAADDGYZMCRWRC-CIIFZSTISA-N.pdb
REMARK                            x       y       z     vdW  Elec       q    Type
REMARK                         _______ _______ _______ _____ _____    ______ ____
ROOT
ATOM      1  N   LIG    1       34.366  16.142   0.000  0.00  0.00    -0.130 NA
ATOM      2  C   LIG    1       33.903  14.716   0.000  0.00  0.00    +0.184 C 
ENDROOT
BRANCH   2   3
ATOM      3  C   LIG    1       32.476  15.179   0.000  0.00  0.00    +0.256 C 
ATOM      4  O   LIG    1       31.362  14.176   0.000  0.00  0.00    -0.272 OA
BRANCH   3   5
ATOM      5  N   LIG    1       32.164  16.646   0.000  0.00  0.00    -0.195 NA
ATOM      6  C   LIG    1       30.738  17.110   0.000  0.00  0.00    +0.127 C 
ENDBRANCH   3   5
ENDBRANCH   2   3
BRANCH   2   7
ATOM      7  C   LIG    1       35.330  14.252   0.000  0.00  0.00    +0.034 C 
BRANCH   7   8
ATOM      8  C   LIG    1       36.756  13.789   0.000  0.00  0.00    +0.131 C 
BRANCH   8   9
ATOM      9  C   LIG    1       38.183  13.325   0.000  0.00  0.00    +0.356 C 
ATOM     10  O   LIG    1       38.495  11.858   0.000  0.00  0.00    -0.246 OA
ATOM     11  O   LIG    1       39.297  14.329   0.000  0.00  0.00    -0.246 OA
ENDBRANCH   8   9
ENDBRANCH   7   8
ENDBRANCH   2   7
TORSDOF 5
REMARK  Name = molecules/YAADDGYZMCRWRC-CIIFZSTISA-N.pdb
REMARK                            x       y       z     vdW  Elec       q    Type
REMARK                         _______ _______ _______ _____ _____    ______ ____
ROOT
ATOM      1  N   LIG    1        2.748   3.603   0.000  0.00  0.00    +0.000 NA
ENDROOT
TORSDOF 0
REMARK  Name = molecules/YAADDGYZMCRWRC-CIIFZSTISA-N.pdb
REMARK                            x       y       z     vdW  Elec       q    Type
REMARK                         _______ _______ _______ _____ _____    ______ ____
ROOT
ATOM      1  C   LIG    1       70.733  34.236   0.000  0.00  0.00    +0.000 C 
ENDROOT
TORSDOF 0
REMARK  Name = molecules/YAADDGYZMCRWRC-CIIFZSTISA-N.pdb
REMARK                            x       y       z     vdW  Elec       q    Type
REMARK                         _______ _______ _______ _____ _____    ______ ____
ROOT
ATOM      1  N   LIG    1       21.834  13.328   0.000  0.00  0.00    -0.138 NA
ATOM      2  C   LIG    1       20.408  13.792   0.000  0.00  0.00    +0.110 C 
ATOM      3  C   LIG    1       20.871  15.218   0.000  0.00  0.00    +0.028 C 
ENDROOT
TORSDOF 0
REMARK  Name = molecules/YAADDGYZMCRWRC-CIIFZSTISA-N.pdb
REMARK                            x       y       z     vdW  Elec       q    Type
REMARK                         _______ _______ _______ _____ _____    ______ ____
ROOT
ATOM      1  N   LIG    1       59.815  29.109   0.000  0.00  0.00    -0.278 NA
ATOM      2  C   LIG    1       59.352  27.683   0.000  0.00  0.00    +0.119 C 
ATOM      3  C   LIG    1       61.282  29.421   0.000  0.00  0.00    +0.151 C 
ENDROOT
BRANCH   2   4
ATOM      4  C   LIG    1       60.778  27.219   0.000  0.00  0.00    +0.172 C 
ATOM      5  O   LIG    1       60.315  25.792   0.000  0.00  0.00    -0.218 OA
ATOM      6  C   LIG    1       62.205  26.756   0.000  0.00  0.00    +0.054 C 
ENDBRANCH   2   4
TORSDOF 1
REMARK  Name = molecules/YAADDGYZMCRWRC-CIIFZSTISA-N.pdb
REMARK                            x       y       z     vdW  Elec       q    Type
REMARK                         _______ _______ _______ _____ _____    ______ ____
ROOT
ATOM      1  C   LIG    1       65.714  30.924   0.000  0.00  0.00    +0.157 C 
ATOM      2  C   LIG    1       67.140  30.461   0.000  0.00  0.00    +0.171 C 
ATOM      3  C   LIG    1       68.567  29.997   0.000  0.00  0.00    +0.092 C 
ATOM      4  O   LIG    1       66.677  29.034   0.000  0.00  0.00    -0.291 OA
ENDROOT
BRANCH   1   5
ATOM      5  N   LIG    1       66.177  32.351   0.000  0.00  0.00    -0.254 NA
ATOM      6  C   LIG    1       67.644  32.663   0.000  0.00  0.00    +0.072 C 
ATOM      7  C   LIG    1       68.108  34.089   0.000  0.00  0.00    +0.053 C 
ENDBRANCH   1   5
TORSDOF 1
REMARK  Name = molecules/YAADDGYZMCRWRC-CIIFZSTISA-N.pdb
REMARK                            x       y       z     vdW  Elec       q    Type
REMARK                         _______ _______ _______ _____ _____    ______ ____
ROOT
ATOM      1  O   HOH    1       46.934  -4.079   0.000  0.00  0.00    +0.000 OA
ENDROOT
TORSDOF 0
REMARK  Name = molecules/YAADDGYZMCRWRC-CIIFZSTISA-N.pdb
REMARK                            x       y       z     vdW  Elec       q    Type
REMARK                         _______ _______ _______ _____ _____    ______ ____
ROOT
ATOM      1  C   LIG    1       48.864  -2.341   0.000  0.00  0.00    +0.000 C 
ENDROOT
TORSDOF 0
REMARK  Name = molecules/YAADDGYZMCRWRC-CIIFZSTISA-N.pdb
REMARK                            x       y       z     vdW  Elec       q    Type
REMARK                         _______ _______ _______ _____ _____    ______ ____
ROOT
ATOM      1  C   LIG    1       59.135  -0.157   0.000  0.00  0.00    +0.000 C 
ENDROOT
BRANCH   1   2
ATOM      2  C   LIG    1       60.602   0.154   0.000  0.00  0.00    +0.000 C 
BRANCH   2   3
ATOM      3  C   LIG    1       62.069   0.466   0.000  0.00  0.00    -0.000 C 
BRANCH   3   4
ATOM      4  C   LIG    1       63.537   0.778   0.000  0.00  0.00    +0.000 C 
BRANCH   4   5
ATOM      5  C   LIG    1       65.004   1.090   0.000  0.00  0.00    +0.000 C 
BRANCH   5   6
ATOM      6  C   LIG    1       66.471   1.402   0.000  0.00  0.00    +0.000 C 
BRANCH   6   7
ATOM      7  C   LIG    1       67.938   1.714   0.000  0.00  0.00    +0.001 C 
BRANCH   7   8
ATOM      8  C   LIG    1       69.406   2.026   0.000  0.00  0.00    +0.011 C 
BRANCH   8   9
ATOM      9  C   LIG    1       70.873   2.338   0.000  0.00  0.00    +0.125 C 
BRANCH   9  10
ATOM     10  C   LIG    1       72.340   2.649   0.000  0.00  0.00    +0.356 C 
ATOM     11  O   LIG    1       73.344   1.535   0.000  0.00  0.00    -0.246 OA
ATOM     12  O   LIG    1       72.804   4.076   0.000  0.00  0.00    -0.246 OA
ENDBRANCH   9  10
ENDBRANCH   8   9
ENDBRANCH   7   8
ENDBRANCH   6   7
ENDBRANCH   5   6
ENDBRANCH   4   5
ENDBRANCH   3   4
ENDBRANCH   2   3
ENDBRANCH   1   2
BRANCH   1  13
ATOM     13  C   LIG    1       57.668  -0.469   0.000  0.00  0.00    +0.000 C 
BRANCH  13  14
ATOM     14  C   LIG    1       56.201  -0.781   0.000  0.00  0.00    +0.000 C 
BRANCH  14  15
ATOM     15  C   LIG    1       54.733  -1.093   0.000  0.00  0.00    +0.007 C 
BRANCH  15  16
ATOM     16  C   LIG    1       53.266  -1.405   0.000  0.00  0.00    +0.030 C 
BRANCH  16  17
ATOM     17  C   LIG    1       51.799  -1.717   0.000  0.00  0.00    +0.102 C 
BRANCH  17  18
ATOM     18  O   LIG    1       51.976  -0.258   0.000  0.00  0.00    -0.385 OA
ATOM     19  H   LIG    1       53.136   0.089   0.000  0.00  0.00    +0.210 HD
ENDBRANCH  17  18
BRANCH  17  20
ATOM     20  C   LIG    1       51.137  -1.502   0.000  0.00  0.00    +0.038 C 
BRANCH  20  21
ATOM     21  C   LIG    1       50.332  -2.029   0.000  0.00  0.00    -0.006 C 
ATOM     22  C   LIG    1       49.710  -1.038   0.000  0.00  0.00    +0.005 C 
ENDBRANCH  20  21
ENDBRANCH  17  20
ENDBRANCH  16  17
ENDBRANCH  15  16
ENDBRANCH  14  15
ENDBRANCH  13  14
ENDBRANCH   1  13
TORSDOF 17
REMARK  Name = molecules/YAADDGYZMCRWRC-CIIFZSTISA-N.pdb
REMARK                            x       y       z     vdW  Elec       q    Type
REMARK                         _______ _______ _______ _____ _____    ______ ____
ROOT
ATOM      1  C   LIG    1       35.834  16.454   0.000  0.00  0.00    +0.000 C 
ENDROOT
TORSDOF 0
REMARK  Name = molecules/YAADDGYZMCRWRC-CIIFZSTISA-N.pdb
REMARK                            x       y       z     vdW  Elec       q    Type
REMARK                         _______ _______ _______ _____ _____    ______ ____
ROOT
ATOM      1  O   HOH    1       36.966  15.470   0.000  0.00  0.00    -0.410 OA
ATOM      2  H   HOH    0       38.036  15.950   0.000  0.00  0.00    +0.205 HD
ATOM      3  H   HOH    0       36.124  15.524   0.000  0.00  0.00    +0.205 HD
ENDROOT
TORSDOF 0
REMARK  Name = molecules/YAADDGYZMCRWRC-CIIFZSTISA-N.pdb
REMARK                            x       y       z     vdW  Elec       q    Type
REMARK                         _______ _______ _______ _____ _____    ______ ____
ROOT
ATOM      1  C   LIG    1       22.949  14.332   0.000  0.00  0.00    +0.000 C 
ENDROOT
TORSDOF 0
REMARK  Name = molecules/YAADDGYZMCRWRC-CIIFZSTISA-N.pdb
REMARK                            x       y       z     vdW  Elec       q    Type
REMARK                         _______ _______ _______ _____ _____    ______ ____
ROOT
ATOM      1  O   HOH    1       22.637  15.799   0.000  0.00  0.00    -0.410 OA
ATOM      2  H   HOH    0       22.368  15.114   0.000  0.00  0.00    +0.205 HD
ATOM      3  H   HOH    0       23.835  16.410   0.000  0.00  0.00    +0.205 HD
ENDROOT
TORSDOF 0
REMARK  Name = molecules/YAADDGYZMCRWRC-CIIFZSTISA-N.pdb
REMARK                            x       y       z     vdW  Elec       q    Type
REMARK                         _______ _______ _______ _____ _____    ______ ____
ROOT
ATOM      1  C   LIG    1       -2.335   2.523   0.000  0.00  0.00    +0.000 C 
ATOM      2  C   LIG    1       -2.331   1.500   0.000  0.00  0.00    +0.000 C 
ENDROOT
TORSDOF 0
REMARK  Name = molecules/YAADDGYZMCRWRC-CIIFZSTISA-N.pdb
REMARK                            x       y       z     vdW  Elec       q    Type
REMARK                         _______ _______ _______ _____ _____    ______ ____
ROOT
ATOM      1  C   LIG    1       -1.220   3.526   0.000  0.00  0.00    -0.000 C 
ENDROOT
TORSDOF 0
REMARK  Name = molecules/YAADDGYZMCRWRC-CIIFZSTISA-N.pdb
REMARK                            x       y       z     vdW  Elec       q    Type
REMARK                         _______ _______ _______ _____ _____    ______ ____
ROOT
ATOM      1  O   HOH    1       -3.694   3.157   0.000  0.00  0.00    -0.253 OA
ATOM      2  H   HOH    0       -2.694   2.955   0.000  0.00  0.00    +0.253 HD
ENDROOT
TORSDOF 0
REMARK  Name = molecules/YAADDGYZMCRWRC-CIIFZSTISA-N.pdb
REMARK                            x       y       z     vdW  Elec       q    Type
REMARK                         _______ _______ _______ _____ _____    ______ ____
ROOT
ATOM      1  C   LIG    1       15.619   7.462   0.000  0.00  0.00    +0.000 C 
ENDROOT
TORSDOF 0
REMARK  Name = molecules/YAADDGYZMCRWRC-CIIFZSTISA-N.pdb
REMARK                            x       y       z     vdW  Elec       q    Type
REMARK                         _______ _______ _______ _____ _____    ______ ____
ROOT
ATOM      1  O   HOH    1       10.094   9.343   0.000  0.00  0.00    -0.410 OA
ATOM      2  H   HOH    0        9.643   8.630   0.000  0.00  0.00    +0.205 HD
ATOM      3  H   HOH    0       11.111   9.926   0.000  0.00  0.00    +0.205 HD
ENDROOT
TORSDOF 0
REMARK  Name = molecules/YAADDGYZMCRWRC-CIIFZSTISA-N.pdb
REMARK                            x       y       z     vdW  Elec       q    Type
REMARK                         _______ _______ _______ _____ _____    ______ ____
ROOT
ATOM      1  C   LIG    1       69.422  42.337   0.000  0.00  0.00    +0.000 C 
ENDROOT
TORSDOF 0
REMARK  Name = molecules/YAADDGYZMCRWRC-CIIFZSTISA-N.pdb
REMARK                            x       y       z     vdW  Elec       q    Type
REMARK                         _______ _______ _______ _____ _____    ______ ____
ROOT
ATOM      1  C   LIG    1       72.047  42.484   0.000  0.00  0.00    +0.134 C 
ENDROOT
BRANCH   1   2
ATOM      2  N   LIG    1       71.165  43.697   0.000  0.00  0.00    -0.086 NA
BRANCH   2   3
ATOM      3  O   LIG    1       70.889  42.649   0.000  0.00  0.00    -0.295 OA
ATOM      4  H   LIG    1       70.224  41.691   0.000  0.00  0.00    +0.238 HD
ENDBRANCH   2   3
ENDBRANCH   1   2
BRANCH   1   5
ATOM      5  C   LIG    1       73.473  42.947   0.000  0.00  0.00    +0.122 C 
BRANCH   5   6
ATOM      6  N   LIG    1       73.473  44.447   0.000  0.00  0.00    -0.232 NA
ATOM      7  C   LIG    1       72.047  44.911   0.000  0.00  0.00    +0.119 C 
ENDBRANCH   5   6
ENDBRANCH   1   5
TORSDOF 4
REMARK  Name = molecules/YAADDGYZMCRWRC-CIIFZSTISA-N.pdb
REMARK                            x       y       z     vdW  Elec       q    Type
REMARK                         _______ _______ _______ _____ _____    ______ ____
ROOT
ATOM      1  O   HOH    1       68.418  43.452   0.000  0.00  0.00    +0.000 OA
ENDROOT
TORSDOF 0
REMARK  Name = molecules/YAADDGYZMCRWRC-CIIFZSTISA-N.pdb
REMARK                            x       y       z     vdW  Elec       q    Type
REMARK                         _______ _______ _______ _____ _____    ______ ____
ROOT
ATOM      1  C   LIG    1       71.583  41.057   0.000  0.00  0.00    +0.000 C 
ENDROOT
TORSDOF 0
REMARK  Name = molecules/YAADDGYZMCRWRC-CIIFZSTISA-N.pdb
REMARK                            x       y       z     vdW  Elec       q    Type
REMARK                         _______ _______ _______ _____ _____    ______ ____
ROOT
ATOM      1  C   LIG    1       71.120  39.631   0.000  0.00  0.00    +0.000 C 
ENDROOT
TORSDOF 0
REMARK  Name = molecules/YAADDGYZMCRWRC-CIIFZSTISA-N.pdb
REMARK                            x       y       z     vdW  Elec       q    Type
REMARK                         _______ _______ _______ _____ _____    ______ ____
ROOT
ATOM      1  C   LIG    1        3.863   4.607   0.000  0.00  0.00    +0.000 C 
ENDROOT
TORSDOF 0
REMARK  Name = molecules/YAADDGYZMCRWRC-CIIFZSTISA-N.pdb
REMARK                            x       y       z     vdW  Elec       q    Type
REMARK                         _______ _______ _______ _____ _____    ______ ____
ROOT
ATOM      1  C   LIG    1       54.416  23.977   0.000  0.00  0.00    +0.043 C 
ATOM      2  C   LIG    1       55.843  23.514   0.000  0.00  0.00    +0.178 C 
ATOM      3  O   LIG    1       56.154  22.047   0.000  0.00  0.00    -0.221 OA
ENDROOT
TORSDOF 0
REMARK  Name = molecules/YAADDGYZMCRWRC-CIIFZSTISA-N.pdb
REMARK                            x       y       z     vdW  Elec       q    Type
REMARK                         _______ _______ _______ _____ _____    ______ ____
ROOT
ATOM      1  O   LIG    1       56.957  24.517   0.000  0.00  0.00    -0.253 OA
ATOM      2  H   LIG    1       57.122  25.675   0.000  0.00  0.00    +0.253 HD
ENDROOT
BRANCH   1   3
ATOM      3  O   LIG    1       55.924  25.065   0.000  0.00  0.00    -0.253 OA
ATOM      4  H   LIG    1       55.211  25.249   0.000  0.00  0.00    +0.253 HD
ENDBRANCH   1   3
TORSDOF 1
REMARK  Name = molecules/YAADDGYZMCRWRC-CIIFZSTISA-N.pdb
REMARK                            x       y       z     vdW  Elec       q    Type
REMARK                         _______ _______ _______ _____ _____    ______ ____
ROOT
ATOM      1  C   LIG    1       52.989  24.441   0.000  0.00  0.00    +0.000 C 
ENDROOT
TORSDOF 0
REMARK  Name = molecules/YAADDGYZMCRWRC-CIIFZSTISA-N.pdb
REMARK                            x       y       z     vdW  Elec       q    Type
REMARK                         _______ _______ _______ _____ _____    ______ ____
ROOT
ATOM      1  O   HOH    1       51.615  26.404   0.000  0.00  0.00    -0.410 OA
ATOM      2  H   HOH    0       51.445  27.113   0.000  0.00  0.00    +0.205 HD
ATOM      3  H   HOH    0       52.449  26.982   0.000  0.00  0.00    +0.205 HD
ENDROOT
TORSDOF 0
REMARK  Name = molecules/YAADDGYZMCRWRC-CIIFZSTISA-N.pdb
REMARK                            x       y       z     vdW  Elec       q    Type
REMARK                         _______ _______ _______ _____ _____    ______ ____
ROOT
ATOM      1  O   HOH    1       62.414  28.437   0.000  0.00  0.00    -0.410 OA
ATOM      2  H   HOH    0       61.573  28.491   0.000  0.00  0.00    +0.205 HD
ATOM      3  H   HOH    0       63.484  28.917   0.000  0.00  0.00    +0.205 HD
ENDROOT
TORSDOF 0
REMARK  Name = molecules/YAADDGYZMCRWRC-CIIFZSTISA-N.pdb
REMARK                            x       y       z     vdW  Elec       q    Type
REMARK                         _______ _______ _______ _____ _____    ______ ____
ROOT
ATOM      1  C   LIG    1        8.147   8.735   0.000  0.00  0.00    -0.013 C 
ATOM      2  C   LIG    1        8.611  10.162   0.000  0.00  0.00    +0.013 C 
ENDROOT
TORSDOF 0
REMARK  Name = molecules/YAADDGYZMCRWRC-CIIFZSTISA-N.pdb
REMARK                            x       y       z     vdW  Elec       q    Type
REMARK                         _______ _______ _______ _____ _____    ______ ____
ROOT
ATOM      1  C   LIG    1        7.684   7.308   0.000  0.00  0.00    -0.000 C 
ENDROOT
TORSDOF 0
REMARK  Name = molecules/YAADDGYZMCRWRC-CIIFZSTISA-N.pdb
REMARK                            x       y       z     vdW  Elec       q    Type
REMARK                         _______ _______ _______ _____ _____    ______ ____
ROOT
ATOM      1  C   LIG    1        5.294   9.662   0.000  0.00  0.00    +0.000 C 
ENDROOT
TORSDOF 0
REMARK  Name = molecules/YAADDGYZMCRWRC-CIIFZSTISA-N.pdb
REMARK                            x       y       z     vdW  Elec       q    Type
REMARK                         _______ _______ _______ _____ _____    ______ ____
ROOT
ATOM      1  C   LIG    1        6.720   9.198   0.000  0.00  0.00    +0.000 C 
ENDROOT
TORSDOF 0
REMARK  Name = molecules/YAADDGYZMCRWRC-CIIFZSTISA-N.pdb
REMARK                            x       y       z     vdW  Elec       q    Type
REMARK                         _______ _______ _______ _____ _____    ______ ____
ROOT
ATOM      1  O   HOH    1       16.456  12.585   0.000  0.00  0.00    -0.410 OA
ATOM      2  H   HOH    0       16.006  11.872   0.000  0.00  0.00    +0.205 HD
ATOM      3  H   HOH    0       17.473  13.168   0.000  0.00  0.00    +0.205 HD
ENDROOT
TORSDOF 0
REMARK  Name = molecules/YAADDGYZMCRWRC-CIIFZSTISA-N.pdb
REMARK                            x       y       z     vdW  Elec       q    Type
REMARK                         _______ _______ _______ _____ _____    ______ ____
ROOT
ATOM      1  O   HOH    1       14.586   8.009   0.000  0.00  0.00    -0.410 OA
ATOM      2  H   HOH    0       15.131   8.880   0.000  0.00  0.00    +0.205 HD
ATOM      3  H   HOH    0       13.873   8.194   0.000  0.00  0.00    +0.205 HD
ENDROOT
TORSDOF 0
REMARK  Name = molecules/YAADDGYZMCRWRC-CIIFZSTISA-N.pdb
REMARK                            x       y       z     vdW  Elec       q    Type
REMARK                         _______ _______ _______ _____ _____    ______ ____
ROOT
ATOM      1  O   HOH    1       27.310  14.492   0.000  0.00  0.00    -0.410 OA
ATOM      2  H   HOH    0       28.508  15.103   0.000  0.00  0.00    +0.205 HD
ATOM      3  H   HOH    0       26.597  14.677   0.000  0.00  0.00    +0.205 HD
ENDROOT
TORSDOF 0
REMARK  Name = molecules/YAADDGYZMCRWRC-CIIFZSTISA-N.pdb
REMARK                            x       y       z     vdW  Elec       q    Type
REMARK                         _______ _______ _______ _____ _____    ______ ____
ROOT
ATOM      1  C   LIG    1        5.142   6.768   0.000  0.00  0.00    +0.000 C 
ENDROOT
TORSDOF 0
REMARK  Name = molecules/YAADDGYZMCRWRC-CIIFZSTISA-N.pdb
REMARK                            x       y       z     vdW  Elec       q    Type
REMARK                         _______ _______ _______ _____ _____    ______ ____
ROOT
ATOM      1  C   LIG    1        3.716   7.232   0.000  0.00  0.00    -0.000 C 
ENDROOT
TORSDOF 0
REMARK  Name = molecules/YAADDGYZMCRWRC-CIIFZSTISA-N.pdb
REMARK                            x       y       z     vdW  Elec       q    Type
REMARK                         _______ _______ _______ _____ _____    ______ ____
ROOT
ATOM      1  O   HOH    1       44.889  23.130   0.000  0.00  0.00    -0.410 OA
ATOM      2  H   HOH    0       44.619  22.445   0.000  0.00  0.00    +0.205 HD
ATOM      3  H   HOH    0       46.087  23.741   0.000  0.00  0.00    +0.205 HD
ENDROOT
TORSDOF 0
REMARK  Name = molecules/YAADDGYZMCRWRC-CIIFZSTISA-N.pdb
REMARK                            x       y       z     vdW  Elec       q    Type
REMARK                         _______ _______ _______ _____ _____    ______ ____
ROOT
ATOM      1  C   LIG    1       44.233  18.034   0.000  0.00  0.00    +0.000 C 
ENDROOT
TORSDOF 0
REMARK  Name = molecules/YAADDGYZMCRWRC-CIIFZSTISA-N.pdb
REMARK                            x       y       z     vdW  Elec       q    Type
REMARK                         _______ _______ _______ _____ _____    ______ ____
ROOT
ATOM      1  O   HOH    1       38.708  19.915   0.000  0.00  0.00    -0.410 OA
ATOM      2  H   HOH    0       39.725  20.499   0.000  0.00  0.00    +0.205 HD
ATOM      3  H   HOH    0       38.257  19.203   0.000  0.00  0.00    +0.205 HD
ENDROOT
TORSDOF 0
REMARK  Name = molecules/YAADDGYZMCRWRC-CIIFZSTISA-N.pdb
REMARK                            x       y       z     vdW  Elec       q    Type
REMARK                         _______ _______ _______ _____ _____    ______ ____
ROOT
ATOM      1  C   LIG    1       54.920  26.179   0.000  0.00  0.00    +0.000 C 
ENDROOT
TORSDOF 0
REMARK  Name = molecules/YAADDGYZMCRWRC-CIIFZSTISA-N.pdb
REMARK                            x       y       z     vdW  Elec       q    Type
REMARK                         _______ _______ _______ _____ _____    ______ ____
ROOT
ATOM      1  C   LIG    1       -3.630   0.750   0.000  0.00  0.00    +0.029 C 
ENDROOT
BRANCH   1   2
ATOM      2  C   LIG    1       -4.141   1.167   0.000  0.00  0.00    +0.197 C 
ATOM      3  O   LIG    1       -3.855   2.639   0.000  0.00  0.00    -0.228 OA
ENDBRANCH   1   2
BRANCH   1   4
ATOM      4  C   LIG    1       -3.138   0.052   0.000  0.00  0.00    +0.002 C 
ATOM      5  C   LIG    1       -3.630  -0.750   0.000  0.00  0.00    +0.000 C 
ENDBRANCH   1   4
TORSDOF 2
REMARK  Name = molecules/YAADDGYZMCRWRC-CIIFZSTISA-N.pdb
REMARK                            x       y       z     vdW  Elec       q    Type
REMARK                         _______ _______ _______ _____ _____    ______ ____
ROOT
ATOM      1  C   LIG    1       -2.134  -1.063   0.000  0.00  0.00    -0.009 C 
ATOM      2  C   LIG    1       -1.032  -0.750   0.000  0.00  0.00    +0.012 C 
ENDROOT
BRANCH   2   3
ATOM      3  C   LIG    1       -1.130  -2.178   0.000  0.00  0.00    -0.007 C 
ATOM      4  C   LIG    1       -2.331  -1.500   0.000  0.00  0.00    +0.004 C 
ENDBRANCH   2   3
TORSDOF 1
REMARK  Name = molecules/YAADDGYZMCRWRC-CIIFZSTISA-N.pdb
REMARK                            x       y       z     vdW  Elec       q    Type
REMARK                         _______ _______ _______ _____ _____    ______ ____
ROOT
ATOM      1  C   LIG    1       -0.126  -3.292   0.000  0.00  0.00    +0.000 C 
ENDROOT
TORSDOF 0
REMARK  Name = molecules/YAADDGYZMCRWRC-CIIFZSTISA-N.pdb
REMARK                            x       y       z     vdW  Elec       q    Type
REMARK                         _______ _______ _______ _____ _____    ______ ____
ROOT
ATOM      1  N   LIG    1        0.877  -4.407   0.000  0.00  0.00    +0.139 NA
ATOM      2  C   LIG    1        0.414  -5.833   0.000  0.00  0.00    +0.574 C 
ATOM      3  N   LIG    1        1.417  -6.948   0.000  0.00  0.00    +0.139 NA
ATOM      4  N   LIG    1       -1.054  -6.145   0.000  0.00  0.00    +0.139 NA
ENDROOT
TORSDOF 0
REMARK  Name = molecules/YAADDGYZMCRWRC-CIIFZSTISA-N.pdb
REMARK                            x       y       z     vdW  Elec       q    Type
REMARK                         _______ _______ _______ _____ _____    ______ ____
ROOT
ATOM      1  O   HOH    1       43.200  18.581   0.000  0.00  0.00    -0.410 OA
ATOM      2  H   HOH    0       42.487  18.766   0.000  0.00  0.00    +0.205 HD
ATOM      3  H   HOH    0       43.745  19.452   0.000  0.00  0.00    +0.205 HD
ENDROOT
TORSDOF 0
REMARK  Name = molecules/YAADDGYZMCRWRC-CIIFZSTISA-N.pdb
REMARK                            x       y       z     vdW  Elec       q    Type
REMARK                         _______ _______ _______ _____ _____    ______ ____
ROOT
ATOM      1  C   LIG    1        0.858   2.640   0.000  0.00  0.00    +0.000 C 
ENDROOT
TORSDOF 0
REMARK  Name = molecules/YAADDGYZMCRWRC-CIIFZSTISA-N.pdb
REMARK                            x       y       z     vdW  Elec       q    Type
REMARK                         _______ _______ _______ _____ _____    ______ ____
ROOT
ATOM      1  C   LIG    1        0.394   1.214   0.000  0.00  0.00    +0.000 C 
ENDROOT
TORSDOF 0
REMARK  Name = molecules/YAADDGYZMCRWRC-CIIFZSTISA-N.pdb
REMARK                            x       y       z     vdW  Elec       q    Type
REMARK                         _______ _______ _______ _____ _____    ______ ____
ROOT
ATOM      1  C   LIG    1        1.276   0.000   0.000  0.00  0.00    +0.000 C 
ENDROOT
TORSDOF 0
REMARK  Name = molecules/YAADDGYZMCRWRC-CIIFZSTISA-N.pdb
REMARK                            x       y       z     vdW  Elec       q    Type
REMARK                         _______ _______ _______ _____ _____    ______ ____
ROOT
ATOM      1  N   LIG    1        0.394  -1.214   0.000  0.00  0.00    -0.163 NA
ATOM      2  H   LIG    1        1.102  -2.432   0.000  0.00  0.00    +0.163 HD
ENDROOT
TORSDOF 0
REMARK  Name = molecules/YAADDGYZMCRWRC-CIIFZSTISA-N.pdb
REMARK                            x       y       z     vdW  Elec       q    Type
REMARK                         _______ _______ _______ _____ _____    ______ ____
ROOT
ATOM      1  O   HOH    1        0.924   6.722   0.000  0.00  0.00    +0.000 OA
ENDROOT
TORSDOF 0
REMARK  Name = molecules/YAADDGYZMCRWRC-CIIFZSTISA-N.pdb
REMARK                            x       y       z     vdW  Elec       q    Type
REMARK                         _______ _______ _______ _____ _____    ______ ____
ROOT
ATOM      1  O   HOH    1       68.776  31.679   0.000  0.00  0.00    -0.253 OA
ATOM      2  H   HOH    0       67.935  31.733   0.000  0.00  0.00    +0.253 HD
ENDROOT
TORSDOF 0
REMARK  Name = molecules/YAADDGYZMCRWRC-CIIFZSTISA-N.pdb
REMARK                            x       y       z     vdW  Elec       q    Type
REMARK                         _______ _______ _______ _____ _____    ______ ____
ROOT
ATOM      1  C   LIG    1        2.441  10.589   0.000  0.00  0.00    +0.000 C 
ENDROOT
TORSDOF 0
REMARK  Name = molecules/YAADDGYZMCRWRC-CIIFZSTISA-N.pdb
REMARK                            x       y       z     vdW  Elec       q    Type
REMARK                         _______ _______ _______ _____ _____    ______ ____
ROOT
ATOM      1  O   HOH    1       49.562  21.823   0.000  0.00  0.00    -0.410 OA
ATOM      2  H   HOH    0       50.595  21.276   0.000  0.00  0.00    +0.205 HD
ATOM      3  H   HOH    0       48.849  22.008   0.000  0.00  0.00    +0.205 HD
ENDROOT
TORSDOF 0
REMARK  Name = molecules/YAADDGYZMCRWRC-CIIFZSTISA-N.pdb
REMARK                            x       y       z     vdW  Elec       q    Type
REMARK                         _______ _______ _______ _____ _____    ______ ____
ROOT
ATOM      1  O   HOH    1       21.076  11.381   0.000  0.00  0.00    -0.410 OA
ATOM      2  H   HOH    0       20.235  11.435   0.000  0.00  0.00    +0.205 HD
ATOM      3  H   HOH    0       22.146  11.861   0.000  0.00  0.00    +0.205 HD
ENDROOT
TORSDOF 0
REMARK  Name = molecules/YAADDGYZMCRWRC-CIIFZSTISA-N.pdb
REMARK                            x       y       z     vdW  Elec       q    Type
REMARK                         _______ _______ _______ _____ _____    ______ ____
ROOT
ATOM      1  C   LIG    1       29.311  17.574   0.000  0.00  0.00    +0.000 C 
ENDROOT
TORSDOF 0
REMARK  Name = molecules/YAADDGYZMCRWRC-CIIFZSTISA-N.pdb
REMARK                            x       y       z     vdW  Elec       q    Type
REMARK                         _______ _______ _______ _____ _____    ______ ____
ROOT
ATOM      1  O   HOH    1       29.181  19.068   0.000  0.00  0.00    -0.253 OA
ATOM      2  H   HOH    0       28.730  18.355   0.000  0.00  0.00    +0.253 HD
ENDROOT
TORSDOF 0
REMARK  Name = molecules/YAADDGYZMCRWRC-CIIFZSTISA-N.pdb
REMARK                            x       y       z     vdW  Elec       q    Type
REMARK                         _______ _______ _______ _____ _____    ______ ____
ROOT
ATOM      1  C   LIG    1       57.925  28.146   0.000  0.00  0.00    +0.000 C 
ENDROOT
TORSDOF 0
REMARK  Name = molecules/YAADDGYZMCRWRC-CIIFZSTISA-N.pdb
REMARK                            x       y       z     vdW  Elec       q    Type
REMARK                         _______ _______ _______ _____ _____    ______ ____
ROOT
ATOM      1  O   HOH    1       57.613  29.613   0.000  0.00  0.00    -0.410 OA
ATOM      2  H   HOH    0       57.343  28.928   0.000  0.00  0.00    +0.205 HD
ATOM      3  H   HOH    0       58.811  30.224   0.000  0.00  0.00    +0.205 HD
ENDROOT
TORSDOF 0
REMARK  Name = molecules/YAADDGYZMCRWRC-CIIFZSTISA-N.pdb
REMARK                            x       y       z     vdW  Elec       q    Type
REMARK                         _______ _______ _______ _____ _____    ______ ____
ROOT
ATOM      1  C   LIG    1       64.287  31.388   0.000  0.00  0.00    +0.000 C 
ENDROOT
TORSDOF 0
REMARK  Name = molecules/YAADDGYZMCRWRC-CIIFZSTISA-N.pdb
REMARK                            x       y       z     vdW  Elec       q    Type
REMARK                         _______ _______ _______ _____ _____    ______ ____
ROOT
ATOM      1  O   HOH    1       63.975  32.855   0.000  0.00  0.00    -0.410 OA
ATOM      2  H   HOH    0       65.000  32.784   0.000  0.00  0.00    +0.205 HD
ATOM      3  H   HOH    0       63.706  32.170   0.000  0.00  0.00    +0.205 HD
ENDROOT
TORSDOF 0
REMARK  Name = molecules/YAADDGYZMCRWRC-CIIFZSTISA-N.pdb
REMARK                            x       y       z     vdW  Elec       q    Type
REMARK                         _______ _______ _______ _____ _____    ______ ____
ROOT
ATOM      1  C   LIG    1       48.284  -0.575   0.000  0.00  0.00    +0.000 C 
ENDROOT
TORSDOF 0
REMARK  Name = molecules/YAADDGYZMCRWRC-CIIFZSTISA-N.pdb
REMARK                            x       y       z     vdW  Elec       q    Type
REMARK                         _______ _______ _______ _____ _____    ______ ____
ROOT
ATOM      1  O   HOH    1       51.449  -2.969   0.000  0.00  0.00    -0.410 OA
ATOM      2  H   HOH    0       52.616  -2.975   0.000  0.00  0.00    +0.205 HD
ATOM      3  H   HOH    0       50.644  -3.496   0.000  0.00  0.00    +0.205 HD
ENDROOT
TORSDOF 0
REMARK  Name = molecules/YAADDGYZMCRWRC-CIIFZSTISA-N.pdb
REMARK                            x       y       z     vdW  Elec       q    Type
REMARK                         _______ _______ _______ _____ _____    ______ ____
ROOT
ATOM      1  H   UNK    1       -2.240   9.116   0.000  0.00  0.00    +0.000 HD
ENDROOT
TORSDOF 0
REMARK  Name = molecules/YAADDGYZMCRWRC-CIIFZSTISA-N.pdb
REMARK                            x       y       z     vdW  Elec       q    Type
REMARK                         _______ _______ _______ _____ _____    ______ ____
ROOT
ATOM      1  H   UNK    1       36.247   6.068   0.000  0.00  0.00    +0.000 HD
ENDROOT
TORSDOF 0
REMARK  Name = molecules/YAADDGYZMCRWRC-CIIFZSTISA-N.pdb
REMARK                            x       y       z     vdW  Elec       q    Type
REMARK                         _______ _______ _______ _____ _____    ______ ____
ROOT
ATOM      1  H   UNK    1       -6.072  -0.572   0.000  0.00  0.00    +0.000 HD
ENDROOT
TORSDOF 0
REMARK  Name = molecules/YAADDGYZMCRWRC-CIIFZSTISA-N.pdb
REMARK                            x       y       z     vdW  Elec       q    Type
REMARK                         _______ _______ _______ _____ _____    ______ ____
ROOT
ATOM      1  H   UNK    1       46.233   2.823   0.000  0.00  0.00    +0.000 HD
ENDROOT
TORSDOF 0
REMARK  Name = molecules/YAADDGYZMCRWRC-CIIFZSTISA-N.pdb
REMARK                            x       y       z     vdW  Elec       q    Type
REMARK                         _______ _______ _______ _____ _____    ______ ____
ROOT
ATOM      1  H   UNK    1        9.598   5.427   0.000  0.00  0.00    +0.000 HD
ENDROOT
TORSDOF 0
REMARK  Name = molecules/YAADDGYZMCRWRC-CIIFZSTISA-N.pdb
REMARK                            x       y       z     vdW  Elec       q    Type
REMARK                         _______ _______ _______ _____ _____    ______ ____
ROOT
ATOM      1  H   UNK    1        4.256   4.690   0.000  0.00  0.00    +0.000 HD
ENDROOT
TORSDOF 0
REMARK  Name = molecules/YAADDGYZMCRWRC-CIIFZSTISA-N.pdb
REMARK                            x       y       z     vdW  Elec       q    Type
REMARK                         _______ _______ _______ _____ _____    ______ ____
ROOT
ATOM      1  H   UNK    1       73.078  37.578   0.000  0.00  0.00    +0.000 HD
ENDROOT
TORSDOF 0
REMARK  Name = molecules/YAADDGYZMCRWRC-CIIFZSTISA-N.pdb
REMARK                            x       y       z     vdW  Elec       q    Type
REMARK                         _______ _______ _______ _____ _____    ______ ____
ROOT
ATOM      1  H   UNK    1       -8.156   5.625   0.000  0.00  0.00    +0.000 HD
ENDROOT
TORSDOF 0
REMARK  Name = molecules/YAADDGYZMCRWRC-CIIFZSTISA-N.pdb
REMARK                            x       y       z     vdW  Elec       q    Type
REMARK                         _______ _______ _______ _____ _____    ______ ____
ROOT
ATOM      1  H   UNK    1       33.506  17.371   0.000  0.00  0.00    +0.000 HD
ENDROOT
TORSDOF 0
REMARK  Name = molecules/YAADDGYZMCRWRC-CIIFZSTISA-N.pdb
REMARK                            x       y       z     vdW  Elec       q    Type
REMARK                         _______ _______ _______ _____ _____    ______ ____
ROOT
ATOM      1  H   UNK    1        3.236   2.185   0.000  0.00  0.00    +0.000 HD
ENDROOT
TORSDOF 0
REMARK  Name = molecules/YAADDGYZMCRWRC-CIIFZSTISA-N.pdb
REMARK                            x       y       z     vdW  Elec       q    Type
REMARK                         _______ _______ _______ _____ _____    ______ ____
ROOT
ATOM      1  H   UNK    1       50.760  22.433   0.000  0.00  0.00    +0.000 HD
ENDROOT
TORSDOF 0
REMARK  Name = molecules/YAADDGYZMCRWRC-CIIFZSTISA-N.pdb
REMARK                            x       y       z     vdW  Elec       q    Type
REMARK                         _______ _______ _______ _____ _____    ______ ____
ROOT
ATOM      1  H   UNK    1       70.269  32.810   0.000  0.00  0.00    +0.000 HD
ENDROOT
TORSDOF 0
REMARK  Name = molecules/YAADDGYZMCRWRC-CIIFZSTISA-N.pdb
REMARK                            x       y       z     vdW  Elec       q    Type
REMARK                         _______ _______ _______ _____ _____    ______ ____
ROOT
ATOM      1  H   UNK    1       72.092  33.602   0.000  0.00  0.00    +0.000 HD
ENDROOT
TORSDOF 0
REMARK  Name = molecules/YAADDGYZMCRWRC-CIIFZSTISA-N.pdb
REMARK                            x       y       z     vdW  Elec       q    Type
REMARK                         _______ _______ _______ _____ _____    ______ ____
ROOT
ATOM      1  H   UNK    1       33.148  17.779   0.000  0.00  0.00    +0.000 HD
ENDROOT
TORSDOF 0
REMARK  Name = molecules/YAADDGYZMCRWRC-CIIFZSTISA-N.pdb
REMARK                            x       y       z     vdW  Elec       q    Type
REMARK                         _______ _______ _______ _____ _____    ______ ____
ROOT
ATOM      1  H   UNK    1       74.271   4.388   0.000  0.00  0.00    +0.000 HD
ENDROOT
TORSDOF 0
REMARK  Name = molecules/YAADDGYZMCRWRC-CIIFZSTISA-N.pdb
REMARK                            x       y       z     vdW  Elec       q    Type
REMARK                         _______ _______ _______ _____ _____    ______ ____
ROOT
ATOM      1  H   UNK    1       -2.352   4.511   0.000  0.00  0.00    +0.000 HD
ENDROOT
TORSDOF 0
REMARK  Name = molecules/YAADDGYZMCRWRC-CIIFZSTISA-N.pdb
REMARK                            x       y       z     vdW  Elec       q    Type
REMARK                         _______ _______ _______ _____ _____    ______ ____
ROOT
ATOM      1  H   UNK    1       -8.665   7.311   0.000  0.00  0.00    +0.000 HD
ENDROOT
TORSDOF 0
REMARK  Name = molecules/YAADDGYZMCRWRC-CIIFZSTISA-N.pdb
REMARK                            x       y       z     vdW  Elec       q    Type
REMARK                         _______ _______ _______ _____ _____    ______ ____
ROOT
ATOM      1  H   UNK    1       -7.059  12.253   0.000  0.00  0.00    +0.000 HD
ENDROOT
TORSDOF 0
REMARK  Name = molecules/YAADDGYZMCRWRC-CIIFZSTISA-N.pdb
REMARK                            x       y       z     vdW  Elec       q    Type
REMARK                         _______ _______ _______ _____ _____    ______ ____
ROOT
ATOM      1  H   UNK    1       -5.321  10.322   0.000  0.00  0.00    +0.000 HD
ENDROOT
TORSDOF 0
REMARK  Name = molecules/YAADDGYZMCRWRC-CIIFZSTISA-N.pdb
REMARK                            x       y       z     vdW  Elec       q    Type
REMARK                         _______ _______ _______ _____ _____    ______ ____
ROOT
ATOM      1  H   UNK    1       -9.600  11.713   0.000  0.00  0.00    +0.000 HD
ENDROOT
TORSDOF 0
REMARK  Name = molecules/YAADDGYZMCRWRC-CIIFZSTISA-N.pdb
REMARK                            x       y       z     vdW  Elec       q    Type
REMARK                         _______ _______ _______ _____ _____    ______ ____
ROOT
ATOM      1  H   UNK    1       67.068  39.947   0.000  0.00  0.00    +0.000 HD
ENDROOT
TORSDOF 0
REMARK  Name = molecules/YAADDGYZMCRWRC-CIIFZSTISA-N.pdb
REMARK                            x       y       z     vdW  Elec       q    Type
REMARK                         _______ _______ _______ _____ _____    ______ ____
ROOT
ATOM      1  H   UNK    1       67.532  41.374   0.000  0.00  0.00    +0.000 HD
ENDROOT
TORSDOF 0
REMARK  Name = molecules/YAADDGYZMCRWRC-CIIFZSTISA-N.pdb
REMARK                            x       y       z     vdW  Elec       q    Type
REMARK                         _______ _______ _______ _____ _____    ______ ____
ROOT
ATOM      1  H   UNK    1       73.010  40.594   0.000  0.00  0.00    +0.000 HD
ENDROOT
TORSDOF 0
REMARK  Name = molecules/YAADDGYZMCRWRC-CIIFZSTISA-N.pdb
REMARK                            x       y       z     vdW  Elec       q    Type
REMARK                         _______ _______ _______ _____ _____    ______ ____
ROOT
ATOM      1  H   UNK    1       74.687  45.329   0.000  0.00  0.00    +0.000 HD
ENDROOT
TORSDOF 0
REMARK  Name = molecules/YAADDGYZMCRWRC-CIIFZSTISA-N.pdb
REMARK                            x       y       z     vdW  Elec       q    Type
REMARK                         _______ _______ _______ _____ _____    ______ ____
ROOT
ATOM      1  H   UNK    1       72.546  39.167   0.000  0.00  0.00    +0.000 HD
ENDROOT
TORSDOF 0
REMARK  Name = molecules/YAADDGYZMCRWRC-CIIFZSTISA-N.pdb
REMARK                            x       y       z     vdW  Elec       q    Type
REMARK                         _______ _______ _______ _____ _____    ______ ____
ROOT
ATOM      1  H   UNK    1        6.252   2.253   0.000  0.00  0.00    +0.000 HD
ENDROOT
TORSDOF 0
REMARK  Name = molecules/YAADDGYZMCRWRC-CIIFZSTISA-N.pdb
REMARK                            x       y       z     vdW  Elec       q    Type
REMARK                         _______ _______ _______ _____ _____    ______ ____
ROOT
ATOM      1  H   UNK    1        4.826   2.717   0.000  0.00  0.00    +0.000 HD
ENDROOT
TORSDOF 0
REMARK  Name = molecules/YAADDGYZMCRWRC-CIIFZSTISA-N.pdb
REMARK                            x       y       z     vdW  Elec       q    Type
REMARK                         _______ _______ _______ _____ _____    ______ ____
ROOT
ATOM      1  H   UNK    1       58.384  24.054   0.000  0.00  0.00    +0.000 HD
ENDROOT
TORSDOF 0
REMARK  Name = molecules/YAADDGYZMCRWRC-CIIFZSTISA-N.pdb
REMARK                            x       y       z     vdW  Elec       q    Type
REMARK                         _______ _______ _______ _____ _____    ______ ____
ROOT
ATOM      1  H   UNK    1       52.526  23.014   0.000  0.00  0.00    +0.000 HD
ENDROOT
TORSDOF 0
REMARK  Name = molecules/YAADDGYZMCRWRC-CIIFZSTISA-N.pdb
REMARK                            x       y       z     vdW  Elec       q    Type
REMARK                         _______ _______ _______ _____ _____    ______ ____
ROOT
ATOM      1  H   UNK    1        7.007  10.671   0.000  0.00  0.00    +0.000 HD
ENDROOT
TORSDOF 0
REMARK  Name = molecules/YAADDGYZMCRWRC-CIIFZSTISA-N.pdb
REMARK                            x       y       z     vdW  Elec       q    Type
REMARK                         _______ _______ _______ _____ _____    ______ ____
ROOT
ATOM      1  H   UNK    1       26.261   9.313   0.000  0.00  0.00    +0.000 HD
ENDROOT
TORSDOF 0
REMARK  Name = molecules/YAADDGYZMCRWRC-CIIFZSTISA-N.pdb
REMARK                            x       y       z     vdW  Elec       q    Type
REMARK                         _______ _______ _______ _____ _____    ______ ____
ROOT
ATOM      1  H   UNK    1       17.367  16.568   0.000  0.00  0.00    +0.000 HD
ENDROOT
TORSDOF 0
REMARK  Name = molecules/YAADDGYZMCRWRC-CIIFZSTISA-N.pdb
REMARK                            x       y       z     vdW  Elec       q    Type
REMARK                         _______ _______ _______ _____ _____    ______ ____
ROOT
ATOM      1  H   UNK    1       27.620  23.855   0.000  0.00  0.00    +0.000 HD
ENDROOT
TORSDOF 0
REMARK  Name = molecules/YAADDGYZMCRWRC-CIIFZSTISA-N.pdb
REMARK                            x       y       z     vdW  Elec       q    Type
REMARK                         _______ _______ _______ _____ _____    ______ ____
ROOT
ATOM      1  H   UNK    1       25.690  22.116   0.000  0.00  0.00    +0.000 HD
ENDROOT
TORSDOF 0
REMARK  Name = molecules/YAADDGYZMCRWRC-CIIFZSTISA-N.pdb
REMARK                            x       y       z     vdW  Elec       q    Type
REMARK                         _______ _______ _______ _____ _____    ______ ____
ROOT
ATOM      1  H   UNK    1        9.355   5.207   0.000  0.00  0.00    +0.000 HD
ENDROOT
TORSDOF 0
REMARK  Name = molecules/YAADDGYZMCRWRC-CIIFZSTISA-N.pdb
REMARK                            x       y       z     vdW  Elec       q    Type
REMARK                         _______ _______ _______ _____ _____    ______ ____
ROOT
ATOM      1  H   UNK    1        8.074   4.343   0.000  0.00  0.00    +0.000 HD
ENDROOT
TORSDOF 0
REMARK  Name = molecules/YAADDGYZMCRWRC-CIIFZSTISA-N.pdb
REMARK                            x       y       z     vdW  Elec       q    Type
REMARK                         _______ _______ _______ _____ _____    ______ ____
ROOT
ATOM      1  H   UNK    1        4.002   8.704   0.000  0.00  0.00    +0.000 HD
ENDROOT
TORSDOF 0
REMARK  Name = molecules/YAADDGYZMCRWRC-CIIFZSTISA-N.pdb
REMARK                            x       y       z     vdW  Elec       q    Type
REMARK                         _______ _______ _______ _____ _____    ______ ____
ROOT
ATOM      1  H   UNK    1       47.710  14.173   0.000  0.00  0.00    +0.000 HD
ENDROOT
TORSDOF 0
REMARK  Name = molecules/YAADDGYZMCRWRC-CIIFZSTISA-N.pdb
REMARK                            x       y       z     vdW  Elec       q    Type
REMARK                         _______ _______ _______ _____ _____    ______ ____
ROOT
ATOM      1  H   UNK    1       55.307  31.574   0.000  0.00  0.00    +0.000 HD
ENDROOT
TORSDOF 0
REMARK  Name = molecules/YAADDGYZMCRWRC-CIIFZSTISA-N.pdb
REMARK                            x       y       z     vdW  Elec       q    Type
REMARK                         _______ _______ _______ _____ _____    ______ ____
ROOT
ATOM      1  H   UNK    1       -1.241  -4.296   0.000  0.00  0.00    +0.000 HD
ENDROOT
TORSDOF 0
REMARK  Name = molecules/YAADDGYZMCRWRC-CIIFZSTISA-N.pdb
REMARK                            x       y       z     vdW  Elec       q    Type
REMARK                         _______ _______ _______ _____ _____    ______ ____
ROOT
ATOM      1  H   UNK    1        2.345  -4.095   0.000  0.00  0.00    +0.000 HD
ENDROOT
TORSDOF 0
REMARK  Name = molecules/YAADDGYZMCRWRC-CIIFZSTISA-N.pdb
REMARK                            x       y       z     vdW  Elec       q    Type
REMARK                         _______ _______ _______ _____ _____    ______ ____
ROOT
ATOM      1  H   UNK    1       -1.517  -7.572   0.000  0.00  0.00    +0.000 HD
ENDROOT
TORSDOF 0
REMARK  Name = molecules/YAADDGYZMCRWRC-CIIFZSTISA-N.pdb
REMARK                            x       y       z     vdW  Elec       q    Type
REMARK                         _______ _______ _______ _____ _____    ______ ____
ROOT
ATOM      1  H   UNK    1       -2.057  -5.031   0.000  0.00  0.00    +0.000 HD
ENDROOT
TORSDOF 0
REMARK  Name = molecules/YAADDGYZMCRWRC-CIIFZSTISA-N.pdb
REMARK                            x       y       z     vdW  Elec       q    Type
REMARK                         _______ _______ _______ _____ _____    ______ ____
ROOT
ATOM      1  H   UNK    1        0.954  -8.375   0.000  0.00  0.00    +0.000 HD
ENDROOT
TORSDOF 0
REMARK  Name = molecules/YAADDGYZMCRWRC-CIIFZSTISA-N.pdb
REMARK                            x       y       z     vdW  Elec       q    Type
REMARK                         _______ _______ _______ _____ _____    ______ ____
ROOT
ATOM      1  H   UNK    1       -4.122  -1.080   0.000  0.00  0.00    +0.000 HD
ENDROOT
TORSDOF 0
REMARK  Name = molecules/YAADDGYZMCRWRC-CIIFZSTISA-N.pdb
REMARK                            x       y       z     vdW  Elec       q    Type
REMARK                         _______ _______ _______ _____ _____    ______ ____
ROOT
ATOM      1  H   UNK    1       42.583  25.090   0.000  0.00  0.00    +0.000 HD
ENDROOT
TORSDOF 0
REMARK  Name = molecules/YAADDGYZMCRWRC-CIIFZSTISA-N.pdb
REMARK                            x       y       z     vdW  Elec       q    Type
REMARK                         _______ _______ _______ _____ _____    ______ ____
ROOT
ATOM      1  H   UNK    1       40.724  13.865   0.000  0.00  0.00    +0.000 HD
ENDROOT
TORSDOF 0
REMARK  Name = molecules/YAADDGYZMCRWRC-CIIFZSTISA-N.pdb
REMARK                            x       y       z     vdW  Elec       q    Type
REMARK                         _______ _______ _______ _____ _____    ______ ____
ROOT
ATOM      1  H   UNK    1       -4.828  -1.653   0.000  0.00  0.00    +0.000 HD
ENDROOT
TORSDOF 0
REMARK  Name = molecules/YAADDGYZMCRWRC-CIIFZSTISA-N.pdb
REMARK                            x       y       z     vdW  Elec       q    Type
REMARK                         _______ _______ _______ _____ _____    ______ ____
ROOT
ATOM      1  H   UNK    1       66.681  34.553   0.000  0.00  0.00    +0.000 HD
ENDROOT
TORSDOF 0
REMARK  Name = molecules/YAADDGYZMCRWRC-CIIFZSTISA-N.pdb
REMARK                            x       y       z     vdW  Elec       q    Type
REMARK                         _______ _______ _______ _____ _____    ______ ____
ROOT
ATOM      1  H   UNK    1        3.937  10.485   0.000  0.00  0.00    +0.000 HD
ENDROOT
TORSDOF 0
REMARK  Name = molecules/YAADDGYZMCRWRC-CIIFZSTISA-N.pdb
REMARK                            x       y       z     vdW  Elec       q    Type
REMARK                         _______ _______ _______ _____ _____    ______ ____
ROOT
ATOM      1  H   UNK    1        3.075  11.948   0.000  0.00  0.00    +0.000 HD
ENDROOT
TORSDOF 0
REMARK  Name = molecules/YAADDGYZMCRWRC-CIIFZSTISA-N.pdb
REMARK                            x       y       z     vdW  Elec       q    Type
REMARK                         _______ _______ _______ _____ _____    ______ ____
ROOT
ATOM      1  H   UNK    1       50.412  28.644   0.000  0.00  0.00    +0.000 HD
ENDROOT
TORSDOF 0
REMARK  Name = molecules/YAADDGYZMCRWRC-CIIFZSTISA-N.pdb
REMARK                            x       y       z     vdW  Elec       q    Type
REMARK                         _______ _______ _______ _____ _____    ______ ____
ROOT
ATOM      1  H   UNK    1       48.522  27.681   0.000  0.00  0.00    +0.000 HD
ENDROOT
TORSDOF 0
REMARK  Name = molecules/YAADDGYZMCRWRC-CIIFZSTISA-N.pdb
REMARK                            x       y       z     vdW  Elec       q    Type
REMARK                         _______ _______ _______ _____ _____    ______ ____
ROOT
ATOM      1  H   UNK    1       61.175  24.564   0.000  0.00  0.00    +0.000 HD
ENDROOT
TORSDOF 0
REMARK  Name = molecules/YAADDGYZMCRWRC-CIIFZSTISA-N.pdb
REMARK                            x       y       z     vdW  Elec       q    Type
REMARK                         _______ _______ _______ _____ _____    ______ ____
ROOT
ATOM      1  H   UNK    1       67.537  27.805   0.000  0.00  0.00    +0.000 HD
ENDROOT
TORSDOF 0
REMARK  Name = molecules/YAADDGYZMCRWRC-CIIFZSTISA-N.pdb
REMARK                            x       y       z     vdW  Elec       q    Type
REMARK                         _______ _______ _______ _____ _____    ______ ____
ROOT
ATOM      1  H   UNK    1       48.747   0.852   0.000  0.00  0.00    +0.000 HD
ENDROOT
TORSDOF 0
REMARK  Name = molecules/YAADDGYZMCRWRC-CIIFZSTISA-N.pdb
REMARK                            x       y       z     vdW  Elec       q    Type
REMARK                         _______ _______ _______ _____ _____    ______ ____
ROOT
ATOM      1  H   UNK    1       50.174   0.389   0.000  0.00  0.00    +0.000 HD
ENDROOT
TORSDOF 0
REMARK  Name = molecules/YAADDGYZMCRWRC-CIIFZSTISA-N.pdb
REMARK                            x       y       z     vdW  Elec       q    Type
REMARK                         _______ _______ _______ _____ _____    ______ ____
ROOT
ATOM      1  H   UNK    1       52.721  -3.764   0.000  0.00  0.00    +0.000 HD
ENDROOT
TORSDOF 0
