REMARK  Name = molecules/YAGBSNMZQKEFCO-JTQLQIEISA-N.pdb
REMARK                            x       y       z     vdW  Elec       q    Type
REMARK                         _______ _______ _______ _____ _____    ______ ____
ROOT
ATOM      1  C   LIG    1        0.660  -0.741   1.220  0.00  0.00    +0.053 C 
ENDROOT
BRANCH   1   2
ATOM      2  C   LIG    1        1.633  -0.129   0.318  0.00  0.00    -0.046 A 
ATOM      3  C   LIG    1        2.373   0.975   0.700  0.00  0.00    +0.004 A 
ATOM      4  C   LIG    1        3.296   1.552  -0.149  0.00  0.00    +0.000 A 
ATOM      5  C   LIG    1        3.514   1.050  -1.405  0.00  0.00    +0.000 A 
ATOM      6  C   LIG    1        2.787  -0.049  -1.806  0.00  0.00    +0.000 A 
ATOM      7  C   LIG    1        1.855  -0.628  -0.945  0.00  0.00    +0.004 A 
ENDBRANCH   1   2
BRANCH   1   8
ATOM      8  C   LIG    1       -0.728  -0.206   1.118  0.00  0.00    +0.055 C 
ATOM      9  C   LIG    1       -1.601  -0.928   2.119  0.00  0.00    +0.024 C 
BRANCH   8  10
ATOM     10  N   LIG    1       -1.322  -0.366  -0.186  0.00  0.00    -0.313 NA
ATOM     11  H   LIG    1       -0.699  -0.138  -0.981  0.00  0.00    +0.122 HD
BRANCH  10  13
ATOM     12  C   LIG    1       -3.197   0.023  -1.665  0.00  0.00    +0.020 C 
ATOM     13  C   LIG    1       -2.628   0.228  -0.281  0.00  0.00    +0.078 C 
ENDBRANCH  10  13
ENDBRANCH   8  10
ENDBRANCH   1   8
TORSDOF 4
