REMARK  Name = molecules/YAKWPXVTIGTRJH-QMMMGPOBSA-N.pdb
REMARK                            x       y       z     vdW  Elec       q    Type
REMARK                         _______ _______ _______ _____ _____    ______ ____
ROOT
ATOM      1  C   LIG    1        0.064  -1.467  -0.553  0.00  0.00    +0.186 C 
ATOM      2  C   LIG    1       -0.075  -2.692  -1.469  0.00  0.00    +0.041 C 
ENDROOT
BRANCH   1   3
ATOM      3  N   LIG    1        1.245  -0.774  -1.019  0.00  0.00    -0.284 N 
ATOM      4  C   LIG    1        2.322  -0.641  -0.101  0.00  0.00    +0.320 C 
ATOM      5  O   LIG    1        2.252  -1.104   1.066  0.00  0.00    -0.251 OA
ATOM      6  N   LIG    1        3.536   0.029  -0.467  0.00  0.00    -0.174 N 
ATOM      7  H   LIG    1        1.289  -0.401  -1.972  0.00  0.00    +0.151 HD
BRANCH   6   8
ATOM      8  N   LIG    1        3.709   0.579  -1.744  0.00  0.00    +0.053 NA
ATOM      9  O   LIG    1        2.816   1.395  -2.108  0.00  0.00    -0.079 OA
ENDBRANCH   6   8
BRANCH   6  10
ATOM     10  C   LIG    1        4.610   0.156   0.467  0.00  0.00    +0.148 C 
BRANCH  10  11
ATOM     11  C   LIG    1        4.490   1.438   1.290  0.00  0.00    +0.129 C 
ATOM     12 CL   LIG    1        4.520   2.841   0.211  0.00  0.00    -0.124 Cl
ENDBRANCH  10  11
ENDBRANCH   6  10
ENDBRANCH   1   3
BRANCH   1  13
ATOM     13  P   LIG    1       -1.440  -0.488  -0.791  0.00  0.00    +0.352 P 
ATOM     14  O   LIG    1       -2.052  -0.765  -2.168  0.00  0.00    -0.257 OA
BRANCH  13  15
ATOM     15  O   LIG    1       -2.620  -0.850   0.344  0.00  0.00    -0.307 OA
BRANCH  15  16
ATOM     16  C   LIG    1       -3.894  -0.969  -0.254  0.00  0.00    +0.167 C 
ATOM     17  C   LIG    1       -4.906  -1.295   0.821  0.00  0.00    +0.034 C 
ENDBRANCH  15  16
ENDBRANCH  13  15
BRANCH  13  18
ATOM     18  O   LIG    1       -1.074   1.147  -0.742  0.00  0.00    -0.307 OA
BRANCH  18  19
ATOM     19  C   LIG    1       -1.596   1.685   0.410  0.00  0.00    +0.167 C 
ATOM     20  C   LIG    1       -1.253   3.164   0.435  0.00  0.00    +0.034 C 
ENDBRANCH  18  19
ENDBRANCH  13  18
ENDBRANCH   1  13
TORSDOF 9
