REMARK  Name = molecules/YASAKCUCGLMORW-OAHLLOKOSA-N.pdb
REMARK                            x       y       z     vdW  Elec       q    Type
REMARK                         _______ _______ _______ _____ _____    ______ ____
ROOT
ATOM      1  C   LIG    1       -3.661  -1.192  -0.367  0.00  0.00    -0.046 A 
ATOM      2  C   LIG    1       -3.209  -1.580   0.883  0.00  0.00    +0.007 A 
ATOM      3  C   LIG    1       -1.859  -1.611   1.188  0.00  0.00    +0.046 A 
ATOM      4  C   LIG    1       -0.903  -1.255   0.264  0.00  0.00    +0.121 A 
ATOM      5  C   LIG    1       -1.344  -0.866  -0.986  0.00  0.00    +0.046 A 
ATOM      6  C   LIG    1       -2.688  -0.834  -1.293  0.00  0.00    +0.007 A 
ENDROOT
BRANCH   4   7
ATOM      7  O   LIG    1        0.411  -1.307   0.630  0.00  0.00    -0.490 OA
BRANCH   7   8
ATOM      8  C   LIG    1        1.520  -0.993  -0.168  0.00  0.00    +0.248 C 
BRANCH   8   9
ATOM      9  C   LIG    1        2.804  -1.171   0.653  0.00  0.00    +0.147 C 
BRANCH   9  10
ATOM     10  N   LIG    1        3.973  -0.869  -0.111  0.00  0.00    -0.315 N 
ATOM     11  C   LIG    1        4.443  -1.698  -1.206  0.00  0.00    +0.131 C 
BRANCH  10  12
ATOM     12  C   LIG    1        4.722   0.314   0.179  0.00  0.00    +0.121 A 
ATOM     13  N   LIG    1        5.647   0.342   1.150  0.00  0.00    -0.240 NA
ATOM     14  C   LIG    1        6.339   1.464   1.420  0.00  0.00    +0.113 A 
ATOM     15  C   LIG    1        6.107   2.623   0.692  0.00  0.00    +0.020 A 
ATOM     16  C   LIG    1        5.157   2.628  -0.320  0.00  0.00    +0.005 A 
ATOM     17  C   LIG    1        4.474   1.460  -0.561  0.00  0.00    +0.043 A 
ENDBRANCH  10  12
ENDBRANCH   9  10
ENDBRANCH   8   9
ENDBRANCH   7   8
ENDBRANCH   4   7
BRANCH   1  18
ATOM     18  C   LIG    1       -5.079  -1.161  -0.754  0.00  0.00    +0.059 C 
BRANCH  18  19
ATOM     19  C   LIG    1       -5.828   0.071  -0.459  0.00  0.00    +0.146 C 
ATOM     20  S   LIG    1       -5.876   0.502   1.325  0.00  0.00    -0.054 S 
ATOM     21  C   LIG    1       -5.971   2.294   1.043  0.00  0.00    +0.279 C 
ATOM     22  O   LIG    1       -6.455   3.127   1.847  0.00  0.00    -0.263 OA
ATOM     23  N   LIG    1       -5.389   2.451  -0.237  0.00  0.00    -0.246 N 
ATOM     24  H   LIG    1       -4.998   3.403  -0.522  0.00  0.00    +0.158 HD
ATOM     25  C   LIG    1       -5.370   1.322  -1.044  0.00  0.00    +0.234 C 
ATOM     26  O   LIG    1       -4.969   1.351  -2.266  0.00  0.00    -0.274 OA
ENDBRANCH  18  19
ENDBRANCH   1  18
TORSDOF 7
