REMARK  Name = molecules/YBBLVLTVTVSKRW-UHFFFAOYSA-N.pdb
REMARK                            x       y       z     vdW  Elec       q    Type
REMARK                         _______ _______ _______ _____ _____    ______ ____
ROOT
ATOM      1  C   LIG    1       -0.770   0.901   0.186  0.00  0.00    -0.027 A 
ATOM      2  C   LIG    1        0.555   0.944   0.531  0.00  0.00    +0.010 A 
ATOM      3  C   LIG    1        1.306  -0.203   0.583  0.00  0.00    -0.025 A 
ATOM      4  C   LIG    1        0.657  -1.406   0.269  0.00  0.00    +0.010 A 
ATOM      5  C   LIG    1       -0.668  -1.480  -0.078  0.00  0.00    -0.027 A 
ATOM      6  C   LIG    1       -1.402  -0.313  -0.123  0.00  0.00    +0.010 A 
ENDROOT
BRANCH   1   7
ATOM      7  C   LIG    1       -1.638   2.110   0.075  0.00  0.00    +0.077 C 
ATOM      8  C   LIG    1       -0.983   3.364   0.541  0.00  0.00    +0.032 C 
ATOM      9  C   LIG    1       -2.011   2.347  -1.396  0.00  0.00    +0.032 C 
BRANCH   7  10
ATOM     10  C   LIG    1       -2.893   1.878   0.778  0.00  0.00    +0.073 C 
ATOM     11  N   LIG    1       -3.911   1.680   1.336  0.00  0.00    -0.196 NA
ENDBRANCH   7  10
ENDBRANCH   1   7
BRANCH   5  12
ATOM     12  C   LIG    1       -1.288  -2.819  -0.377  0.00  0.00    +0.077 C 
ATOM     13  C   LIG    1       -1.113  -3.793   0.744  0.00  0.00    +0.032 C 
ATOM     14  C   LIG    1       -2.743  -2.636  -0.691  0.00  0.00    +0.032 C 
BRANCH  12  15
ATOM     15  C   LIG    1       -0.631  -3.397  -1.561  0.00  0.00    +0.073 C 
ATOM     16  N   LIG    1       -0.097  -3.847  -2.477  0.00  0.00    -0.196 NA
ENDBRANCH  12  15
ENDBRANCH   5  12
BRANCH   3  17
ATOM     17  C   LIG    1        2.718  -0.298   0.971  0.00  0.00    +0.180 C 
BRANCH  17  18
ATOM     18  N   LIG    1        3.571   0.721   0.457  0.00  0.00    -0.248 N 
ATOM     19  N   LIG    1        3.881   1.822   1.152  0.00  0.00    -0.158 NA
ATOM     20  C   LIG    1        4.719   2.555   0.410  0.00  0.00    +0.245 A 
ATOM     21  N   LIG    1        4.916   1.891  -0.743  0.00  0.00    -0.223 NA
ATOM     22  C   LIG    1        4.203   0.757  -0.710  0.00  0.00    +0.219 A 
ENDBRANCH  17  18
ENDBRANCH   3  17
TORSDOF 6
