REMARK  Name = molecules/YBCPYHQFUMNOJG-GOSISDBHSA-N.pdb
REMARK                            x       y       z     vdW  Elec       q    Type
REMARK                         _______ _______ _______ _____ _____    ______ ____
ROOT
ATOM      1  C   LIG    1        0.576  -0.566   0.082  0.00  0.00    +0.087 C 
ATOM      2  C   LIG    1       -0.848  -0.162   0.166  0.00  0.00    -0.023 A 
ATOM      3  C   LIG    1       -1.736  -1.080   0.651  0.00  0.00    -0.038 A 
ATOM      4  C   LIG    1       -1.236  -2.404   1.058  0.00  0.00    +0.051 C 
ATOM      5  C   LIG    1       -0.024  -2.884   0.352  0.00  0.00    +0.089 C 
ATOM      6  C   LIG    1       -3.104  -0.800   0.771  0.00  0.00    +0.053 A 
ATOM      7  C   LIG    1       -3.520   0.463   0.373  0.00  0.00    +0.162 A 
ATOM      8  C   LIG    1       -2.624   1.386  -0.114  0.00  0.00    +0.162 A 
ATOM      9  C   LIG    1       -1.282   1.108  -0.232  0.00  0.00    +0.054 A 
ATOM     10  N   LIG    1        0.706  -1.911  -0.375  0.00  0.00    -0.298 NA
ATOM     11  C   LIG    1        0.386  -1.957  -1.789  0.00  0.00    +0.105 C 
ENDROOT
BRANCH   7  12
ATOM     12  O   LIG    1       -4.858   0.812   0.464  0.00  0.00    -0.491 OA
ATOM     13  C   LIG    1       -5.845  -0.069   0.951  0.00  0.00    +0.277 C 
ENDBRANCH   7  12
BRANCH   8  14
ATOM     14  O   LIG    1       -3.099   2.624  -0.493  0.00  0.00    -0.491 OA
ATOM     15  C   LIG    1       -2.211   3.592  -0.996  0.00  0.00    +0.277 C 
ENDBRANCH   8  14
BRANCH   1  16
ATOM     16  C   LIG    1        1.225  -0.250   1.371  0.00  0.00    +0.028 C 
BRANCH  16  17
ATOM     17  C   LIG    1        2.688  -0.586   1.476  0.00  0.00    +0.037 C 
BRANCH  17  18
ATOM     18  C   LIG    1        3.410   0.191   0.436  0.00  0.00    -0.047 A 
ATOM     19  C   LIG    1        3.878   1.466   0.697  0.00  0.00    +0.005 A 
ATOM     20  C   LIG    1        4.551   2.232  -0.233  0.00  0.00    +0.020 A 
ATOM     21  C   LIG    1        4.780   1.712  -1.502  0.00  0.00    +0.041 A 
ATOM     22  C   LIG    1        4.318   0.439  -1.780  0.00  0.00    +0.020 A 
ATOM     23 CL   LIG    1        5.629   2.634  -2.732  0.00  0.00    -0.084 Cl
ATOM     24  C   LIG    1        3.644  -0.307  -0.820  0.00  0.00    +0.005 A 
ENDBRANCH  17  18
ENDBRANCH  16  17
ENDBRANCH   1  16
TORSDOF 5
