REMARK  Name = molecules/YBGZDTIWKVFICR-HNNXBMFYSA-N.pdb
REMARK                            x       y       z     vdW  Elec       q    Type
REMARK                         _______ _______ _______ _____ _____    ______ ____
ROOT
ATOM      1  C   LIG    1        0.720  -0.867  -0.344  0.00  0.00    +0.332 C 
ATOM      2  O   LIG    1        0.858   0.305  -0.688  0.00  0.00    -0.246 OA
ENDROOT
BRANCH   1   4
ATOM      3  C   LIG    1        2.985  -1.657   0.237  0.00  0.00    +0.015 C 
ATOM      4  C   LIG    1        1.746  -1.741   0.095  0.00  0.00    +0.092 C 
BRANCH   3   6
ATOM      5  C   LIG    1        3.888   0.481  -0.733  0.00  0.00    +0.011 A 
ATOM      6  C   LIG    1        3.972  -0.649   0.021  0.00  0.00    -0.025 A 
ATOM      7  C   LIG    1        5.196  -0.761   0.743  0.00  0.00    +0.011 A 
ATOM      8  C   LIG    1        6.162   0.195   0.663  0.00  0.00    +0.046 A 
ATOM      9  C   LIG    1        6.051   1.329  -0.103  0.00  0.00    +0.120 A 
ATOM     10  C   LIG    1        4.886   1.463  -0.810  0.00  0.00    +0.046 A 
BRANCH   9  11
ATOM     11  O   LIG    1        7.050   2.289  -0.167  0.00  0.00    -0.495 OA
ATOM     12  C   LIG    1        8.225   2.109   0.574  0.00  0.00    +0.277 C 
ENDBRANCH   9  11
ENDBRANCH   3   6
ENDBRANCH   1   4
BRANCH   1  13
ATOM     13  O   LIG    1       -0.627  -1.343  -0.406  0.00  0.00    -0.461 OA
BRANCH  13  14
ATOM     14  C   LIG    1       -1.676  -0.473  -0.842  0.00  0.00    +0.236 C 
BRANCH  14  15
ATOM     15  C   LIG    1       -2.938  -1.299  -0.781  0.00  0.00    +0.026 C 
BRANCH  15  16
ATOM     16  C   LIG    1       -3.067  -1.806   0.635  0.00  0.00    +0.003 C 
ATOM     17  C   LIG    1       -4.303  -2.655   0.824  0.00  0.00    +0.004 C 
ENDBRANCH  15  16
BRANCH  15  18
ATOM     18  C   LIG    1       -4.098  -0.486  -1.224  0.00  0.00    +0.007 C 
BRANCH  18  19
ATOM     19  C   LIG    1       -4.285   0.711  -0.357  0.00  0.00    +0.000 C 
BRANCH  19  20
ATOM     20  C   LIG    1       -5.497   1.537  -0.816  0.00  0.00    -0.003 C 
ATOM     21  C   LIG    1       -5.606   2.717   0.112  0.00  0.00    +0.004 C 
ENDBRANCH  19  20
ENDBRANCH  18  19
ENDBRANCH  15  18
ENDBRANCH  14  15
ENDBRANCH  13  14
ENDBRANCH   1  13
TORSDOF 10
