REMARK  Name = molecules/YBJHBAHKTGYVGT-ZKWXMUAHSA-N.pdb
REMARK                            x       y       z     vdW  Elec       q    Type
REMARK                         _______ _______ _______ _____ _____    ______ ____
ROOT
ATOM      1  C   LIG    1        0.956   1.168   0.160  0.00  0.00    +0.069 C 
ATOM      2  C   LIG    1        1.897   0.141   0.601  0.00  0.00    +0.108 C 
ATOM      3  C   LIG    1        3.261   0.760   0.246  0.00  0.00    +0.105 C 
ATOM      4  N   LIG    1        4.112  -0.416   0.492  0.00  0.00    -0.294 N 
ATOM      5  H   LIG    1        5.025  -0.429   0.949  0.00  0.00    +0.151 HD
ATOM      6  C   LIG    1        3.337  -1.491  -0.061  0.00  0.00    +0.300 C 
ATOM      7  O   LIG    1        3.815  -2.633  -0.379  0.00  0.00    -0.253 OA
ATOM      8  C   LIG    1        3.289   1.000  -1.231  0.00  0.00    +0.093 C 
ATOM      9  N   LIG    1        1.974  -1.064  -0.188  0.00  0.00    -0.294 N 
ATOM     10  H   LIG    1        1.302  -1.595  -0.755  0.00  0.00    +0.151 HD
ATOM     11  S   LIG    1        1.518   1.387  -1.577  0.00  0.00    -0.154 S 
ENDROOT
BRANCH   1  12
ATOM     12  C   LIG    1       -0.476   1.004   0.312  0.00  0.00    +0.016 C 
BRANCH  12  13
ATOM     13  C   LIG    1       -1.155  -0.145  -0.358  0.00  0.00    +0.002 C 
BRANCH  13  14
ATOM     14  C   LIG    1       -2.652  -0.022   0.004  0.00  0.00    +0.011 C 
BRANCH  14  15
ATOM     15  C   LIG    1       -3.426  -1.143  -0.653  0.00  0.00    +0.120 C 
BRANCH  15  16
ATOM     16  C   LIG    1       -4.840  -1.001  -0.282  0.00  0.00    +0.305 C 
ATOM     17  O   LIG    1       -5.369  -1.822   0.491  0.00  0.00    -0.251 OA
BRANCH  16  18
ATOM     18  O   LIG    1       -5.582   0.034  -0.784  0.00  0.00    -0.481 OA
ATOM     19  H   LIG    1       -5.348   0.972  -0.520  0.00  0.00    +0.295 HD
ENDBRANCH  16  18
ENDBRANCH  15  16
ENDBRANCH  14  15
ENDBRANCH  13  14
ENDBRANCH  12  13
ENDBRANCH   1  12
TORSDOF 6
