REMARK  Name = molecules/YBJKOPHEJOMRMN-UHFFFAOYSA-N.pdb
REMARK                            x       y       z     vdW  Elec       q    Type
REMARK                         _______ _______ _______ _____ _____    ______ ____
ROOT
ATOM      1  C   LIG    1        1.549   0.602   1.042  0.00  0.00    +0.050 C 
ENDROOT
BRANCH   1   2
ATOM      2  C   LIG    1        1.909  -0.842   1.050  0.00  0.00    -0.040 A 
ATOM      3  C   LIG    1        2.276  -1.526   2.196  0.00  0.00    +0.004 A 
ATOM      4  C   LIG    1        2.614  -2.857   2.217  0.00  0.00    +0.000 A 
ATOM      5  C   LIG    1        2.574  -3.510   1.007  0.00  0.00    +0.000 A 
ATOM      6  C   LIG    1        2.215  -2.864  -0.145  0.00  0.00    +0.000 A 
ATOM      7  C   LIG    1        1.880  -1.531  -0.143  0.00  0.00    +0.004 A 
ENDBRANCH   1   2
BRANCH   1   8
ATOM      8  C   LIG    1        2.377   1.380   0.155  0.00  0.00    -0.040 A 
ATOM      9  C   LIG    1        3.767   1.181   0.233  0.00  0.00    +0.004 A 
ATOM     10  C   LIG    1        4.649   1.870  -0.553  0.00  0.00    +0.000 A 
ATOM     11  C   LIG    1        4.218   2.798  -1.466  0.00  0.00    +0.000 A 
ATOM     12  C   LIG    1        2.860   3.002  -1.551  0.00  0.00    +0.000 A 
ATOM     13  C   LIG    1        1.952   2.310  -0.758  0.00  0.00    +0.004 A 
ENDBRANCH   1   8
BRANCH   1  14
ATOM     14  C   LIG    1        0.063   0.832   1.030  0.00  0.00    +0.028 C 
BRANCH  14  15
ATOM     15  C   LIG    1       -0.659   0.233  -0.103  0.00  0.00    +0.086 C 
BRANCH  15  16
ATOM     16  N   LIG    1       -2.069   0.449  -0.247  0.00  0.00    -0.297 NA
BRANCH  16  17
ATOM     17  C   LIG    1       -2.857  -0.168   0.722  0.00  0.00    +0.051 C 
ATOM     18  C   LIG    1       -2.719   0.395   2.109  0.00  0.00    +0.024 C 
ATOM     19  C   LIG    1       -4.335  -0.273   0.439  0.00  0.00    +0.024 C 
ENDBRANCH  16  17
BRANCH  16  20
ATOM     20  C   LIG    1       -2.390   0.157  -1.623  0.00  0.00    +0.051 C 
ATOM     21  C   LIG    1       -2.192  -1.284  -2.008  0.00  0.00    +0.024 C 
ATOM     22  C   LIG    1       -3.613   0.802  -2.179  0.00  0.00    +0.024 C 
ENDBRANCH  16  20
ENDBRANCH  15  16
ENDBRANCH  14  15
ENDBRANCH   1  14
TORSDOF 7
