REMARK  Name = molecules/YBROOZNJUDHTGE-QINSGFPZSA-N.pdb
REMARK                            x       y       z     vdW  Elec       q    Type
REMARK                         _______ _______ _______ _____ _____    ______ ____
ROOT
ATOM      1  C   LIG    1       -0.514   0.392  -1.141  0.00  0.00    +0.020 C 
ATOM      2  C   LIG    1        0.352   1.295  -0.771  0.00  0.00    +0.017 C 
ATOM      3  C   LIG    1        0.055  -0.877  -1.749  0.00  0.00    +0.062 C 
ENDROOT
BRANCH   1   4
ATOM      4  N   LIG    1       -1.929   0.394  -0.999  0.00  0.00    -0.273 N 
ATOM      5  C   LIG    1       -2.741   1.210  -0.220  0.00  0.00    +0.332 C 
ATOM      6  O   LIG    1       -2.448   2.017   0.648  0.00  0.00    -0.279 OA
BRANCH   4   7
ATOM      7  C   LIG    1       -2.708  -0.538  -1.884  0.00  0.00    +0.153 C 
BRANCH   7   8
ATOM      8  C   LIG    1       -2.891  -1.766  -1.120  0.00  0.00    +0.028 A 
ATOM      9  C   LIG    1       -2.402  -1.944   0.170  0.00  0.00    +0.121 A 
ATOM     10  N   LIG    1       -2.603  -3.096   0.821  0.00  0.00    -0.240 NA
ATOM     11  C   LIG    1       -3.269  -4.135   0.294  0.00  0.00    +0.128 A 
ATOM     12  C   LIG    1       -3.482  -5.407   1.032  0.00  0.00    +0.088 C 
ATOM     13  N   LIG    1       -3.746  -3.975  -0.951  0.00  0.00    -0.218 NA
ATOM     14  C   LIG    1       -3.582  -2.850  -1.659  0.00  0.00    +0.124 A 
BRANCH  14  15
ATOM     15  N   LIG    1       -4.096  -2.692  -2.988  0.00  0.00    -0.343 N 
ATOM     16  H   LIG    1       -5.106  -2.807  -3.171  0.00  0.00    +0.144 HD
ATOM     17  H   LIG    1       -3.435  -2.461  -3.760  0.00  0.00    +0.144 HD
ENDBRANCH  14  15
ENDBRANCH   7   8
ENDBRANCH   4   7
ENDBRANCH   1   4
BRANCH   2  18
ATOM     18  S   LIG    1       -0.352   2.756   0.027  0.00  0.00    -0.011 S 
BRANCH  18  19
ATOM     19  C   LIG    1        0.825   3.982   0.472  0.00  0.00    +0.373 C 
ATOM     20  O   LIG    1        2.041   3.844   0.235  0.00  0.00    -0.237 OA
BRANCH  19  21
ATOM     21  O   LIG    1        0.479   5.173   1.109  0.00  0.00    -0.457 OA
BRANCH  21  22
ATOM     22  C   LIG    1        1.424   6.153   1.463  0.00  0.00    +0.229 C 
ATOM     23  C   LIG    1        2.187   6.714   0.309  0.00  0.00    +0.048 C 
ENDBRANCH  21  22
ENDBRANCH  19  21
ENDBRANCH  18  19
ENDBRANCH   2  18
BRANCH   2  24
ATOM     24  C   LIG    1        1.788   1.331  -0.903  0.00  0.00    +0.085 C 
BRANCH  24  25
ATOM     25  C   LIG    1        2.684   0.326  -1.441  0.00  0.00    +0.241 C 
BRANCH  25  26
ATOM     26  O   LIG    1        2.755  -0.918  -0.813  0.00  0.00    -0.433 OA
BRANCH  26  27
ATOM     27  C   LIG    1        3.135  -1.085   0.491  0.00  0.00    +0.510 C 
ATOM     28  O   LIG    1        3.442  -0.104   1.188  0.00  0.00    -0.203 OA
BRANCH  27  29
ATOM     29  O   LIG    1        3.180  -2.358   1.045  0.00  0.00    -0.434 OA
BRANCH  29  30
ATOM     30  C   LIG    1        3.561  -2.581   2.370  0.00  0.00    +0.232 C 
ATOM     31  C   LIG    1        2.703  -1.905   3.388  0.00  0.00    +0.048 C 
ENDBRANCH  29  30
ENDBRANCH  27  29
ENDBRANCH  26  27
ENDBRANCH  25  26
ENDBRANCH  24  25
ENDBRANCH   2  24
TORSDOF 14
