REMARK  Name = molecules/YCWSUKQGVSGXJO-NTUHNPAUSA-N.pdb
REMARK                            x       y       z     vdW  Elec       q    Type
REMARK                         _______ _______ _______ _____ _____    ______ ____
ROOT
ATOM      1  N   LIG    1        0.396  -0.751  -0.797  0.00  0.00    -0.203 N 
ATOM      2  C   LIG    1        1.115   0.317  -0.212  0.00  0.00    +0.263 C 
ATOM      3  O   LIG    1        0.451   1.320   0.169  0.00  0.00    -0.268 OA
ATOM      4  H   LIG    1        0.921  -1.587  -1.118  0.00  0.00    +0.178 HD
ENDROOT
BRANCH   2   5
ATOM      5  C   LIG    1        2.554   0.292  -0.042  0.00  0.00    +0.039 A 
ATOM      6  C   LIG    1        3.180   1.391   0.547  0.00  0.00    +0.016 A 
ATOM      7  C   LIG    1        4.542   1.446   0.745  0.00  0.00    +0.046 A 
ATOM      8  C   LIG    1        5.317   0.378   0.348  0.00  0.00    +0.117 A 
ATOM      9  C   LIG    1        4.726  -0.721  -0.236  0.00  0.00    +0.046 A 
ATOM     10  C   LIG    1        3.359  -0.754  -0.425  0.00  0.00    +0.016 A 
BRANCH   8  11
ATOM     11  O   LIG    1        6.715   0.408   0.538  0.00  0.00    -0.507 OA
ATOM     12  H   LIG    1        7.029   0.031   1.426  0.00  0.00    +0.292 HD
ENDBRANCH   8  11
ENDBRANCH   2   5
BRANCH   1  14
ATOM     13  C   LIG    1       -1.740  -0.344  -0.034  0.00  0.00    +0.176 C 
ATOM     14  N   LIG    1       -0.973  -0.737  -0.964  0.00  0.00    -0.184 NA
BRANCH  13  15
ATOM     15  C   LIG    1       -3.213  -0.315  -0.177  0.00  0.00    +0.150 A 
ATOM     16  O   LIG    1       -4.087   0.068   0.708  0.00  0.00    -0.433 OA
ATOM     17  C   LIG    1       -5.316  -0.019   0.294  0.00  0.00    +0.280 A 
ATOM     18  C   LIG    1       -5.256  -0.508  -0.991  0.00  0.00    +0.076 A 
ATOM     19  C   LIG    1       -3.918  -0.698  -1.297  0.00  0.00    +0.053 A 
BRANCH  17  20
ATOM     20  N   LIG    1       -6.520   0.318   1.011  0.00  0.00    +0.093 N 
ATOM     21  O   LIG    1       -6.446   0.754   2.177  0.00  0.00    -0.123 OA
ATOM     22  O   LIG    1       -7.752   0.167   0.428  0.00  0.00    -0.123 OA
ENDBRANCH  17  20
ENDBRANCH  13  15
ENDBRANCH   1  14
TORSDOF 5
