REMARK  Name = molecules/YDBYJHTYSHBBAU-YFKPBYRVSA-O.pdb
REMARK                            x       y       z     vdW  Elec       q    Type
REMARK                         _______ _______ _______ _____ _____    ______ ____
ROOT
ATOM      1  CA  LIG    1       -1.239   0.470   0.528  0.00  0.00    +0.161 C 
ENDROOT
BRANCH   1   2
ATOM      2  N   LIG    1       -2.253   0.575   1.585  0.00  0.00    -0.318 NA
ATOM      3  H1  LIG    1       -1.951   0.029   2.432  0.00  0.00    +0.119 HD
ATOM      4  H2  LIG    1       -3.171   0.248   1.216  0.00  0.00    +0.119 HD
ENDBRANCH   1   2
BRANCH   1   5
ATOM      5  C   LIG    1       -1.909   0.917  -0.721  0.00  0.00    +0.322 C 
ATOM      6  O   LIG    1       -1.353   0.922  -1.824  0.00  0.00    -0.249 OA
BRANCH   5   7
ATOM      7  OXT LIG    1       -3.240   1.363  -0.689  0.00  0.00    -0.480 OA
ATOM      8  HXT LIG    1       -3.832   1.338  -1.500  0.00  0.00    +0.295 HD
ENDBRANCH   5   7
ENDBRANCH   1   5
BRANCH   1   9
ATOM      9  C   LIG    1       -0.754  -0.950   0.455  0.00  0.00    +0.040 C 
BRANCH   9  10
ATOM     10  C   LIG    1        0.299  -1.222  -0.542  0.00  0.00    +0.060 C 
BRANCH  10  12
ATOM     11  C   LIG    1        1.848   1.284  -0.417  0.00  0.00    +0.073 C 
ATOM     12  S   LIG    1        1.828  -0.448  -0.383  0.00  0.00    -0.214 S 
ATOM     13  C   LIG    1        2.856  -1.049   0.900  0.00  0.00    +0.073 C 
ENDBRANCH  10  12
ENDBRANCH   9  10
ENDBRANCH   1   9
TORSDOF 6
