REMARK  Name = molecules/YDLQKLWVKKFPII-UHFFFAOYSA-N.pdb
REMARK                            x       y       z     vdW  Elec       q    Type
REMARK                         _______ _______ _______ _____ _____    ______ ____
ROOT
ATOM      1  C   LIG    1       -2.451  -0.424   0.235  0.00  0.00    +0.092 C 
ATOM      2  C   LIG    1       -2.091   1.006  -0.158  0.00  0.00    +0.040 C 
ATOM      3  C   LIG    1       -0.983   1.060  -1.182  0.00  0.00    +0.086 C 
ATOM      4  N   LIG    1        0.151   0.328  -0.732  0.00  0.00    -0.302 NA
ATOM      5  C   LIG    1       -0.068  -0.758   0.118  0.00  0.00    +0.086 C 
ATOM      6  C   LIG    1       -1.430  -1.368  -0.318  0.00  0.00    +0.040 C 
ENDROOT
BRANCH   1   9
ATOM      7  S   LIG    1       -3.431  -2.748  -1.802  0.00  0.00    -0.013 S 
ATOM      8  C   LIG    1       -4.296  -1.667  -0.894  0.00  0.00    +0.159 A 
ATOM      9  N   LIG    1       -3.812  -0.732  -0.072  0.00  0.00    -0.316 N 
ATOM     10  C   LIG    1       -4.849  -0.059   0.482  0.00  0.00    +0.068 A 
ATOM     11  C   LIG    1       -4.950   0.989   1.387  0.00  0.00    +0.028 A 
ATOM     12  C   LIG    1       -6.176   1.491   1.789  0.00  0.00    +0.002 A 
ATOM     13  C   LIG    1       -7.335   0.937   1.278  0.00  0.00    +0.002 A 
ATOM     14  C   LIG    1       -7.266  -0.105   0.377  0.00  0.00    +0.028 A 
ATOM     15  C   LIG    1       -6.020  -0.585  -0.006  0.00  0.00    +0.065 A 
ATOM     16  N   LIG    1       -5.636  -1.564  -0.842  0.00  0.00    -0.334 N 
ATOM     17  H   LIG    1       -6.276  -2.194  -1.406  0.00  0.00    +0.168 HD
ENDBRANCH   1   9
BRANCH   4  18
ATOM     18  C   LIG    1        1.370   0.566  -1.342  0.00  0.00    +0.085 C 
BRANCH  18  19
ATOM     19  C   LIG    1        2.539   0.993  -0.546  0.00  0.00    +0.023 C 
BRANCH  19  20
ATOM     20  C   LIG    1        2.937  -0.004   0.509  0.00  0.00    +0.081 C 
BRANCH  20  21
ATOM     21  C   LIG    1        4.117   0.475   1.254  0.00  0.00    +0.163 C 
ATOM     22  O   LIG    1        3.957   1.234   2.232  0.00  0.00    -0.292 OA
BRANCH  21  23
ATOM     23  C   LIG    1        5.455   0.085   0.873  0.00  0.00    +0.018 A 
ATOM     24  C   LIG    1        6.566   0.531   1.606  0.00  0.00    +0.014 A 
ATOM     25  C   LIG    1        7.822   0.150   1.239  0.00  0.00    +0.039 A 
ATOM     26  C   LIG    1        7.981  -0.680   0.139  0.00  0.00    +0.123 A 
ATOM     27  F   LIG    1        9.245  -1.046  -0.203  0.00  0.00    -0.205 F 
ATOM     28  C   LIG    1        6.922  -1.135  -0.598  0.00  0.00    +0.039 A 
ATOM     29  C   LIG    1        5.648  -0.736  -0.210  0.00  0.00    +0.014 A 
ENDBRANCH  21  23
ENDBRANCH  20  21
ENDBRANCH  19  20
ENDBRANCH  18  19
ENDBRANCH   4  18
TORSDOF 6
