REMARK  Name = molecules/YDSAJOSZKLMHFJ-ZCFIWIBFSA-N.pdb
REMARK                            x       y       z     vdW  Elec       q    Type
REMARK                         _______ _______ _______ _____ _____    ______ ____
ROOT
ATOM      1  N   LIG    1       -2.741  -1.006   0.037  0.00  0.00    -0.239 NA
ATOM      2  C   LIG    1       -1.460  -1.038   0.459  0.00  0.00    +0.108 A 
ATOM      3  C   LIG    1       -0.837  -2.270   1.003  0.00  0.00    +0.086 C 
ATOM      4  N   LIG    1       -0.949   0.189   0.283  0.00  0.00    -0.309 N 
ATOM      5  C   LIG    1       -1.909   0.977  -0.246  0.00  0.00    +0.216 A 
ATOM      6  C   LIG    1       -3.071   0.205  -0.405  0.00  0.00    +0.164 A 
ENDROOT
BRANCH   5   7
ATOM      7  N   LIG    1       -1.817   2.336  -0.594  0.00  0.00    +0.075 N 
ATOM      8  O   LIG    1       -0.759   2.957  -0.427  0.00  0.00    -0.125 OA
ATOM      9  O   LIG    1       -2.892   2.986  -1.121  0.00  0.00    -0.125 OA
ENDBRANCH   5   7
BRANCH   4  10
ATOM     10  C   LIG    1        0.380   0.589   0.603  0.00  0.00    +0.129 C 
BRANCH  10  11
ATOM     11  C   LIG    1        1.367   0.424  -0.524  0.00  0.00    +0.020 C 
ATOM     12  C   LIG    1        1.553  -1.042  -0.861  0.00  0.00    +0.010 C 
BRANCH  11  13
ATOM     13  C   LIG    1        2.718   0.903   0.012  0.00  0.00    +0.113 C 
ATOM     14 CL   LIG    1        3.200  -0.064   1.407  0.00  0.00    -0.125 Cl
ENDBRANCH  11  13
ENDBRANCH  10  11
ENDBRANCH   4  10
TORSDOF 4
