REMARK  Name = molecules/YECBIJXISLIIDS-UHFFFAOYSA-N.pdb
REMARK                            x       y       z     vdW  Elec       q    Type
REMARK                         _______ _______ _______ _____ _____    ______ ____
ROOT
ATOM      1  N   LIG    1       -0.786   1.113  -0.053  0.00  0.00    -0.310 N 
ENDROOT
BRANCH   1   2
ATOM      2  C   LIG    1       -0.845   2.011   1.059  0.00  0.00    +0.122 A 
ATOM      3  N   LIG    1       -0.440   1.671   2.299  0.00  0.00    -0.240 NA
ATOM      4  C   LIG    1       -0.530   2.542   3.300  0.00  0.00    +0.113 A 
ATOM      5  C   LIG    1       -1.033   3.830   3.153  0.00  0.00    +0.020 A 
ATOM      6  C   LIG    1       -1.452   4.195   1.894  0.00  0.00    +0.005 A 
ATOM      7  C   LIG    1       -1.349   3.272   0.864  0.00  0.00    +0.043 A 
ENDBRANCH   1   2
BRANCH   1   8
ATOM      8  C   LIG    1       -1.857   0.185  -0.190  0.00  0.00    +0.122 C 
BRANCH   8   9
ATOM      9  C   LIG    1       -1.571  -1.246   0.085  0.00  0.00    +0.102 C 
BRANCH   9  10
ATOM     10  N   LIG    1       -2.775  -2.065  -0.076  0.00  0.00    -0.307 NA
ATOM     11  C   LIG    1       -3.757  -1.812   0.951  0.00  0.00    +0.104 C 
ATOM     12  C   LIG    1       -3.317  -1.853  -1.406  0.00  0.00    +0.104 C 
ENDBRANCH   9  10
ENDBRANCH   8   9
ENDBRANCH   1   8
BRANCH   1  13
ATOM     13  C   LIG    1        0.340   1.197  -0.913  0.00  0.00    +0.141 C 
BRANCH  13  14
ATOM     14  C   LIG    1        1.412   0.215  -0.766  0.00  0.00    -0.030 A 
ATOM     15  C   LIG    1        1.642  -0.580   0.327  0.00  0.00    +0.009 A 
ATOM     16  C   LIG    1        2.731  -1.460   0.369  0.00  0.00    +0.046 A 
ATOM     17  C   LIG    1        3.613  -1.571  -0.665  0.00  0.00    +0.120 A 
ATOM     18  C   LIG    1        3.383  -0.762  -1.784  0.00  0.00    +0.046 A 
ATOM     19  C   LIG    1        2.313   0.099  -1.819  0.00  0.00    +0.009 A 
BRANCH  17  20
ATOM     20  O   LIG    1        4.723  -2.442  -0.659  0.00  0.00    -0.495 OA
ATOM     21  C   LIG    1        5.583  -2.453  -1.811  0.00  0.00    +0.277 C 
ENDBRANCH  17  20
ENDBRANCH  13  14
ENDBRANCH   1  13
TORSDOF 7
