REMARK  Name = molecules/YEHCICAEULNIGD-MZMPZRCHSA-N.pdb
REMARK                            x       y       z     vdW  Elec       q    Type
REMARK                         _______ _______ _______ _____ _____    ______ ____
ROOT
ATOM      1  C   LIG    1        3.038  -0.630  -0.642  0.00  0.00    +0.006 A 
ATOM      2  C   LIG    1        2.041  -1.310   0.049  0.00  0.00    -0.033 A 
ATOM      3  C   LIG    1        2.420  -2.370   0.871  0.00  0.00    +0.004 A 
ATOM      4  C   LIG    1        3.766  -2.670   0.940  0.00  0.00    +0.002 A 
ATOM      5  C   LIG    1        4.737  -1.970   0.237  0.00  0.00    +0.026 A 
ATOM      6  C   LIG    1        0.636  -0.874  -0.133  0.00  0.00    +0.037 C 
ATOM      7  C   LIG    1       -0.227  -1.082   1.102  0.00  0.00    +0.015 C 
ATOM      8  C   LIG    1       -1.645  -0.927   0.537  0.00  0.00    +0.013 C 
ATOM      9  C   LIG    1       -1.747   0.277  -0.358  0.00  0.00    +0.089 C 
ATOM     10  N   LIG    1       -0.679   1.149  -0.357  0.00  0.00    -0.298 NA
ATOM     11  C   LIG    1        0.642   0.609  -0.379  0.00  0.00    +0.068 C 
ATOM     12  C   LIG    1        1.390   0.858  -1.657  0.00  0.00    +0.056 C 
ATOM     13  C   LIG    1        4.375  -0.918  -0.580  0.00  0.00    +0.047 A 
ATOM     14  N   LIG    1        4.990  -0.032  -1.391  0.00  0.00    -0.360 N 
ATOM     15  H   LIG    1        6.016  -0.020  -1.535  0.00  0.00    +0.165 HD
ATOM     16  C   LIG    1        4.047   0.790  -1.944  0.00  0.00    +0.087 A 
ATOM     17  C   LIG    1        2.792   0.419  -1.474  0.00  0.00    -0.021 A 
ENDROOT
BRANCH   8  18
ATOM     18  C   LIG    1       -2.687  -0.999   1.604  0.00  0.00    +0.073 C 
BRANCH  18  19
ATOM     19  S   LIG    1       -4.353  -0.817   0.863  0.00  0.00    -0.164 S 
ATOM     20  C   LIG    1       -4.699  -2.247  -0.215  0.00  0.00    +0.084 C 
ENDBRANCH  18  19
ENDBRANCH   8  18
BRANCH  10  21
ATOM     21  C   LIG    1       -0.810   2.512  -0.490  0.00  0.00    +0.084 C 
BRANCH  21  22
ATOM     22  C   LIG    1       -1.403   3.338   0.603  0.00  0.00    +0.012 C 
ATOM     23  C   LIG    1       -2.821   3.029   0.962  0.00  0.00    +0.005 C 
ENDBRANCH  21  22
ENDBRANCH  10  21
TORSDOF 4
