REMARK  Name = molecules/YEJCDKJIEMIWRQ-UHFFFAOYSA-N.pdb
REMARK                            x       y       z     vdW  Elec       q    Type
REMARK                         _______ _______ _______ _____ _____    ______ ____
ROOT
ATOM      1  C   LIG    1       -0.786   0.394  -0.722  0.00  0.00    +0.082 C 
ATOM      2  C   LIG    1        0.205   0.394   0.367  0.00  0.00    +0.235 C 
ATOM      3  O   LIG    1        0.114   0.955   1.509  0.00  0.00    -0.274 OA
ATOM      4  N   LIG    1        1.329  -0.354  -0.051  0.00  0.00    -0.239 N 
ATOM      5  C   LIG    1        1.012  -0.864  -1.329  0.00  0.00    +0.045 A 
ATOM      6  C   LIG    1        1.813  -1.692  -2.117  0.00  0.00    +0.024 A 
ATOM      7  C   LIG    1        1.325  -2.125  -3.328  0.00  0.00    +0.002 A 
ATOM      8  C   LIG    1        0.045  -1.736  -3.753  0.00  0.00    +0.000 A 
ATOM      9  C   LIG    1       -0.717  -0.925  -2.964  0.00  0.00    +0.006 A 
ATOM     10  C   LIG    1       -0.241  -0.470  -1.727  0.00  0.00    -0.010 A 
ENDROOT
BRANCH   4  11
ATOM     11  C   LIG    1        2.520  -0.523   0.708  0.00  0.00    +0.041 A 
ATOM     12  C   LIG    1        3.125   0.603   1.274  0.00  0.00    +0.024 A 
ATOM     13  C   LIG    1        4.281   0.487   2.015  0.00  0.00    +0.002 A 
ATOM     14  C   LIG    1        4.851  -0.740   2.205  0.00  0.00    +0.000 A 
ATOM     15  C   LIG    1        4.290  -1.880   1.665  0.00  0.00    +0.002 A 
ATOM     16  C   LIG    1        3.134  -1.738   0.928  0.00  0.00    +0.024 A 
ENDBRANCH   4  11
BRANCH   1  17
ATOM     17  C   LIG    1       -0.767   1.824  -1.286  0.00  0.00    +0.056 C 
BRANCH  17  18
ATOM     18  C   LIG    1       -1.107   2.853  -0.294  0.00  0.00    -0.043 A 
ATOM     19  C   LIG    1       -0.129   3.489   0.466  0.00  0.00    +0.023 A 
ATOM     20  C   LIG    1       -0.470   4.453   1.389  0.00  0.00    +0.111 A 
ATOM     21  N   LIG    1       -1.749   4.827   1.603  0.00  0.00    -0.263 NA
ATOM     22  C   LIG    1       -2.709   4.246   0.900  0.00  0.00    +0.111 A 
ATOM     23  C   LIG    1       -2.404   3.286  -0.024  0.00  0.00    +0.023 A 
ENDBRANCH  17  18
ENDBRANCH   1  17
BRANCH   1  24
ATOM     24  C   LIG    1       -2.160   0.111  -0.224  0.00  0.00    +0.056 C 
BRANCH  24  25
ATOM     25  C   LIG    1       -2.384  -1.213   0.344  0.00  0.00    -0.043 A 
ATOM     26  C   LIG    1       -2.224  -1.409   1.696  0.00  0.00    +0.023 A 
ATOM     27  C   LIG    1       -2.431  -2.641   2.277  0.00  0.00    +0.111 A 
ATOM     28  N   LIG    1       -2.798  -3.654   1.478  0.00  0.00    -0.263 NA
ATOM     29  C   LIG    1       -2.970  -3.524   0.153  0.00  0.00    +0.111 A 
ATOM     30  C   LIG    1       -2.761  -2.293  -0.424  0.00  0.00    +0.023 A 
ENDBRANCH  24  25
ENDBRANCH   1  24
TORSDOF 5
