REMARK  Name = molecules/YEKQSSHBERGOJK-UHFFFAOYSA-N.pdb
REMARK                            x       y       z     vdW  Elec       q    Type
REMARK                         _______ _______ _______ _____ _____    ______ ____
ROOT
ATOM      1  C   LIG    1        1.173   0.564  -0.164  0.00  0.00    +0.079 A 
ATOM      2  N   LIG    1       -0.030   0.488   0.465  0.00  0.00    -0.250 NA
ATOM      3  C   LIG    1       -0.879  -0.515   0.195  0.00  0.00    +0.079 A 
ATOM      4  C   LIG    1       -0.505  -1.464  -0.731  0.00  0.00    +0.027 A 
ATOM      5  C   LIG    1        0.709  -1.403  -1.378  0.00  0.00    +0.004 A 
ATOM      6  C   LIG    1        1.574  -0.370  -1.094  0.00  0.00    +0.027 A 
ENDROOT
BRANCH   1   7
ATOM      7  C   LIG    1        2.057   1.708   0.186  0.00  0.00    +0.289 C 
BRANCH   7   8
ATOM      8  O   LIG    1        3.368   1.509  -0.283  0.00  0.00    -0.444 OA
BRANCH   8   9
ATOM      9  C   LIG    1        4.121   0.426   0.144  0.00  0.00    +0.400 C 
ATOM     10  O   LIG    1        3.549  -0.355   0.974  0.00  0.00    -0.226 OA
ATOM     11  N   LIG    1        5.445   0.191  -0.306  0.00  0.00    -0.284 N 
ATOM     12  C   LIG    1        6.233  -0.935   0.135  0.00  0.00    +0.131 C 
ATOM     13  H   LIG    1        5.865   0.859  -0.984  0.00  0.00    +0.152 HD
ENDBRANCH   8   9
ENDBRANCH   7   8
ENDBRANCH   1   7
BRANCH   3  14
ATOM     14  C   LIG    1       -2.215  -0.609   0.885  0.00  0.00    +0.289 C 
BRANCH  14  15
ATOM     15  O   LIG    1       -3.128   0.108   0.080  0.00  0.00    -0.444 OA
BRANCH  15  16
ATOM     16  C   LIG    1       -4.445   0.179   0.492  0.00  0.00    +0.400 C 
ATOM     17  O   LIG    1       -4.758  -0.398   1.562  0.00  0.00    -0.226 OA
ATOM     18  N   LIG    1       -5.394   0.883  -0.277  0.00  0.00    -0.284 N 
ATOM     19  C   LIG    1       -6.760   0.940   0.177  0.00  0.00    +0.131 C 
ATOM     20  H   LIG    1       -5.099   1.345  -1.151  0.00  0.00    +0.152 HD
ENDBRANCH  15  16
ENDBRANCH  14  15
ENDBRANCH   3  14
TORSDOF 6
