REMARK  Name = molecules/YEZNLOUZAIOMLT-UHFFFAOYSA-N.pdb
REMARK                            x       y       z     vdW  Elec       q    Type
REMARK                         _______ _______ _______ _____ _____    ______ ____
ROOT
ATOM      1  N   LIG    1        0.000   0.427   0.433  0.00  0.00    -0.314 N 
ATOM      2  H   LIG    1        0.048   1.201   1.129  0.00  0.00    +0.152 HD
ENDROOT
BRANCH   1   3
ATOM      3  C   LIG    1       -1.275   0.046  -0.059  0.00  0.00    +0.036 A 
ATOM      4  C   LIG    1       -2.404   0.472   0.665  0.00  0.00    -0.011 A 
ATOM      5  C   LIG    1       -2.185   1.221   1.925  0.00  0.00    +0.047 C 
ATOM      6  C   LIG    1       -3.646   0.172   0.171  0.00  0.00    +0.046 A 
ATOM      7 CL   LIG    1       -5.041   0.721   1.103  0.00  0.00    -0.083 Cl
ATOM      8  C   LIG    1       -3.857  -0.517  -0.987  0.00  0.00    +0.020 A 
ATOM      9  C   LIG    1       -2.764  -0.942  -1.710  0.00  0.00    +0.003 A 
ATOM     10  C   LIG    1       -1.480  -0.651  -1.231  0.00  0.00    +0.023 A 
ENDBRANCH   1   3
BRANCH   1  11
ATOM     11  C   LIG    1        1.189  -0.228   0.041  0.00  0.00    +0.045 A 
ATOM     12  C   LIG    1        2.416   0.412   0.064  0.00  0.00    +0.080 A 
ATOM     13  C   LIG    1        3.573  -0.333  -0.221  0.00  0.00    +0.017 A 
ATOM     14  C   LIG    1        3.544  -1.668  -0.523  0.00  0.00    +0.001 A 
ATOM     15  C   LIG    1        2.319  -2.278  -0.539  0.00  0.00    +0.002 A 
ATOM     16  C   LIG    1        1.156  -1.600  -0.267  0.00  0.00    +0.024 A 
BRANCH  12  17
ATOM     17  C   LIG    1        2.548   1.836   0.323  0.00  0.00    +0.339 C 
ATOM     18  O   LIG    1        1.552   2.546   0.525  0.00  0.00    -0.245 OA
BRANCH  17  19
ATOM     19  O   LIG    1        3.844   2.403   0.340  0.00  0.00    -0.477 OA
ATOM     20  H   LIG    1        3.973   3.263  -0.191  0.00  0.00    +0.295 HD
ENDBRANCH  17  19
ENDBRANCH  12  17
ENDBRANCH   1  11
TORSDOF 4
