REMARK  Name = molecules/YFDSDPIBEUFTMI-UHFFFAOYSA-N.pdb
REMARK                            x       y       z     vdW  Elec       q    Type
REMARK                         _______ _______ _______ _____ _____    ______ ____
ROOT
ATOM      1  C   LIG    1       -0.913  -0.060   0.017  0.00  0.00    +0.158 C 
ATOM      2 BR   LIG    1       -1.153  -1.388   1.408  0.00  0.00    -0.057 Br
ATOM      3 BR   LIG    1       -1.575   1.598   0.736  0.00  0.00    -0.057 Br
ATOM      4 BR   LIG    1       -1.854  -0.611  -1.560  0.00  0.00    -0.057 Br
ENDROOT
BRANCH   1   5
ATOM      5  C   LIG    1        0.574   0.049  -0.346  0.00  0.00    +0.197 C 
BRANCH   5   6
ATOM      6  O   LIG    1        1.246   0.420   0.788  0.00  0.00    -0.392 OA
ATOM      7  H   LIG    1        2.122  -0.002   0.915  0.00  0.00    +0.210 HD
ENDBRANCH   5   6
ENDBRANCH   1   5
TORSDOF 2
