REMARK  Name = molecules/YFESJHPTNWYOCO-UHFFFAOYSA-N.pdb
REMARK                            x       y       z     vdW  Elec       q    Type
REMARK                         _______ _______ _______ _____ _____    ______ ____
ROOT
ATOM      1  C   LIG    1        0.060   0.193  -0.016  0.00  0.00    +0.044 C 
ENDROOT
BRANCH   1   2
ATOM      2  C   LIG    1       -0.046   0.167   1.465  0.00  0.00    +0.121 C 
ATOM      3 CL   LIG    1       -1.510   0.791   2.163  0.00  0.00    -0.125 Cl
ENDBRANCH   1   2
BRANCH   1   4
ATOM      4  C   LIG    1       -0.082   1.504  -0.685  0.00  0.00    +0.121 C 
ATOM      5 CL   LIG    1       -1.553   2.384  -0.399  0.00  0.00    -0.125 Cl
ENDBRANCH   1   4
BRANCH   1   6
ATOM      6  C   LIG    1        1.406  -0.393  -0.402  0.00  0.00    +0.167 C 
BRANCH   6   7
ATOM      7  O   LIG    1        1.596  -1.660   0.110  0.00  0.00    -0.394 OA
ATOM      8  H   LIG    1        2.561  -1.861   0.241  0.00  0.00    +0.209 HD
ENDBRANCH   6   7
ENDBRANCH   1   6
BRANCH   1   9
ATOM      9  C   LIG    1       -0.984  -0.762  -0.587  0.00  0.00    +0.167 C 
BRANCH   9  10
ATOM     10  O   LIG    1       -2.228  -0.211  -0.224  0.00  0.00    -0.394 OA
ATOM     11  H   LIG    1       -2.857  -0.926   0.027  0.00  0.00    +0.209 HD
ENDBRANCH   9  10
ENDBRANCH   1   9
TORSDOF 6
