REMARK  Name = molecules/YFGHCGITMMYXAQ-LJQANCHMSA-N.pdb
REMARK                            x       y       z     vdW  Elec       q    Type
REMARK                         _______ _______ _______ _____ _____    ______ ____
ROOT
ATOM      1  C   LIG    1        0.097   0.332  -0.534  0.00  0.00    +0.126 C 
ENDROOT
BRANCH   1   2
ATOM      2  C   LIG    1       -0.474  -1.009  -0.216  0.00  0.00    -0.029 A 
ATOM      3  C   LIG    1       -0.535  -1.484   1.087  0.00  0.00    +0.005 A 
ATOM      4  C   LIG    1       -1.069  -2.727   1.347  0.00  0.00    +0.000 A 
ATOM      5  C   LIG    1       -1.557  -3.538   0.343  0.00  0.00    +0.000 A 
ATOM      6  C   LIG    1       -1.502  -3.079  -0.941  0.00  0.00    +0.000 A 
ATOM      7  C   LIG    1       -0.971  -1.842  -1.201  0.00  0.00    +0.005 A 
ENDBRANCH   1   2
BRANCH   1   8
ATOM      8  C   LIG    1       -0.914   1.401  -0.507  0.00  0.00    -0.029 A 
ATOM      9  C   LIG    1       -1.224   2.133   0.631  0.00  0.00    +0.005 A 
ATOM     10  C   LIG    1       -2.183   3.135   0.621  0.00  0.00    +0.000 A 
ATOM     11  C   LIG    1       -2.865   3.434  -0.541  0.00  0.00    +0.000 A 
ATOM     12  C   LIG    1       -2.573   2.717  -1.693  0.00  0.00    +0.000 A 
ATOM     13  C   LIG    1       -1.627   1.742  -1.649  0.00  0.00    +0.005 A 
ENDBRANCH   1   8
BRANCH   1  14
ATOM     14  S   LIG    1        1.469   0.701   0.631  0.00  0.00    -0.022 S 
ATOM     15  O   LIG    1        2.275   1.794  -0.146  0.00  0.00    -0.161 OA
BRANCH  14  16
ATOM     16  C   LIG    1        2.593  -0.756   0.423  0.00  0.00    +0.186 C 
BRANCH  16  17
ATOM     17  C   LIG    1        3.762  -0.617   1.300  0.00  0.00    +0.222 C 
ATOM     18  O   LIG    1        3.707  -1.087   2.464  0.00  0.00    -0.275 OA
ATOM     19  N   LIG    1        4.912   0.048   0.792  0.00  0.00    -0.329 N 
ATOM     20  H   LIG    1        4.874   1.089   0.744  0.00  0.00    +0.145 HD
ATOM     21  H   LIG    1        5.775  -0.430   0.472  0.00  0.00    +0.145 HD
ENDBRANCH  16  17
ENDBRANCH  14  16
ENDBRANCH   1  14
TORSDOF 5
