REMARK  Name = molecules/YGSDEFSMJLZEOE-UHFFFAOYSA-N.pdb
REMARK                            x       y       z     vdW  Elec       q    Type
REMARK                         _______ _______ _______ _____ _____    ______ ____
ROOT
ATOM      1  C   LIG    1       -0.515  -0.495  -0.192  0.00  0.00    +0.100 A 
ATOM      2  C   LIG    1       -0.190   0.706   0.422  0.00  0.00    +0.131 A 
ATOM      3  C   LIG    1        1.074   1.250   0.323  0.00  0.00    +0.046 A 
ATOM      4  C   LIG    1        2.031   0.575  -0.407  0.00  0.00    +0.004 A 
ATOM      5  C   LIG    1        1.696  -0.627  -1.019  0.00  0.00    +0.001 A 
ATOM      6  C   LIG    1        0.446  -1.166  -0.922  0.00  0.00    +0.018 A 
ENDROOT
BRANCH   1   7
ATOM      7  C   LIG    1       -1.851  -1.011  -0.051  0.00  0.00    +0.340 C 
ATOM      8  O   LIG    1       -2.143  -2.118  -0.619  0.00  0.00    -0.245 OA
BRANCH   7   9
ATOM      9  O   LIG    1       -2.805  -0.326   0.685  0.00  0.00    -0.477 OA
ATOM     10  H   LIG    1       -2.712  -0.372   1.704  0.00  0.00    +0.295 HD
ENDBRANCH   7   9
ENDBRANCH   1   7
BRANCH   2  11
ATOM     11  O   LIG    1       -1.143   1.391   1.158  0.00  0.00    -0.506 OA
ATOM     12  H   LIG    1       -0.919   2.265   1.610  0.00  0.00    +0.292 HD
ENDBRANCH   2  11
TORSDOF 3
