REMARK  Name = molecules/YHKWDHMRGAMOKU-DACMYBEBSA-N.pdb
REMARK                            x       y       z     vdW  Elec       q    Type
REMARK                         _______ _______ _______ _____ _____    ______ ____
ROOT
ATOM      1  C   LIG    1       -3.431   3.626  -0.830  0.00  0.00    +0.214 C 
ATOM      2  C   LIG    1       -2.213   3.257  -0.078  0.00  0.00    +0.096 C 
ATOM      3  C   LIG    1       -1.608   4.407   0.698  0.00  0.00    +0.009 C 
ATOM      4  C   LIG    1       -0.218   4.166   1.177  0.00  0.00    +0.001 C 
ATOM      5  C   LIG    1        0.159   2.742   1.427  0.00  0.00    +0.002 C 
ATOM      6  C   LIG    1        1.284   2.317   0.498  0.00  0.00    +0.032 C 
ATOM      7  C   LIG    1        1.081   0.973  -0.144  0.00  0.00    +0.159 C 
ATOM      8  N   LIG    1       -0.030   0.253   0.392  0.00  0.00    -0.302 N 
ATOM      9  C   LIG    1       -0.161  -0.821   1.249  0.00  0.00    +0.234 C 
ATOM     10  O   LIG    1       -0.387  -0.541   2.507  0.00  0.00    -0.274 OA
ATOM     11  C   LIG    1       -0.099  -2.285   1.025  0.00  0.00    +0.168 C 
ATOM     12  N   LIG    1       -0.213  -2.706  -0.341  0.00  0.00    -0.302 N 
ATOM     13  H   LIG    1        0.541  -3.269  -0.777  0.00  0.00    +0.150 HD
ATOM     14  C   LIG    1       -1.343  -2.371  -1.133  0.00  0.00    +0.234 C 
ATOM     15  C   LIG    1       -2.745  -2.334  -0.639  0.00  0.00    +0.159 C 
ATOM     16  N   LIG    1       -3.525  -1.305  -1.230  0.00  0.00    -0.302 N 
ATOM     17  C   LIG    1       -4.902  -1.126  -1.324  0.00  0.00    +0.234 C 
ATOM     18  C   LIG    1       -5.940  -1.359  -0.301  0.00  0.00    +0.162 C 
ATOM     19  N   LIG    1       -6.471  -0.157   0.305  0.00  0.00    -0.302 N 
ATOM     20  H   LIG    1       -7.209  -0.392   1.060  0.00  0.00    +0.150 HD
ATOM     21  C   LIG    1       -6.165   1.185   0.033  0.00  0.00    +0.234 C 
ATOM     22  C   LIG    1       -4.893   1.894   0.279  0.00  0.00    +0.163 C 
ATOM     23  O   LIG    1       -7.092   1.903  -0.491  0.00  0.00    -0.274 OA
ATOM     24  O   LIG    1       -5.360  -0.700  -2.447  0.00  0.00    -0.274 OA
ATOM     25  H   LIG    1       -2.940  -0.527  -1.685  0.00  0.00    +0.150 HD
ATOM     26  O   LIG    1       -1.173  -2.073  -2.363  0.00  0.00    -0.274 OA
ATOM     27  H   LIG    1       -0.986   0.680   0.067  0.00  0.00    +0.150 HD
ATOM     28  N   LIG    1       -4.664   2.945  -0.692  0.00  0.00    -0.304 N 
ATOM     29  H   LIG    1       -5.468   3.196  -1.308  0.00  0.00    +0.149 HD
ATOM     30  O   LIG    1       -3.369   4.590  -1.628  0.00  0.00    -0.276 OA
ENDROOT
BRANCH   7  31
ATOM     31  C   LIG    1        2.345   0.270  -0.300  0.00  0.00    +0.234 C 
ATOM     32  N   LIG    1        3.645   0.737  -0.108  0.00  0.00    -0.305 N 
ATOM     33  H   LIG    1        3.824   1.719   0.179  0.00  0.00    +0.149 HD
ATOM     34  O   LIG    1        2.265  -0.970  -0.669  0.00  0.00    -0.274 OA
BRANCH  32  35
ATOM     35  C   LIG    1        4.837  -0.081  -0.305  0.00  0.00    +0.200 C 
BRANCH  35  36
ATOM     36  C   LIG    1        6.057   0.653   0.036  0.00  0.00    +0.231 C 
ATOM     37  O   LIG    1        5.949   1.830   0.462  0.00  0.00    -0.274 OA
ATOM     38  N   LIG    1        7.333   0.076  -0.100  0.00  0.00    -0.303 N 
ATOM     39  H   LIG    1        7.492  -0.884  -0.463  0.00  0.00    +0.149 HD
BRANCH  38  40
ATOM     40  C   LIG    1        8.530   0.835   0.283  0.00  0.00    +0.159 C 
BRANCH  40  41
ATOM     41  C   LIG    1        9.191   1.511  -0.837  0.00  0.00    +0.234 C 
ATOM     42  N   LIG    1       10.336   2.303  -0.598  0.00  0.00    -0.305 N 
ATOM     43  H   LIG    1       10.721   2.364   0.396  0.00  0.00    +0.149 HD
ATOM     44  O   LIG    1        8.742   1.399  -1.992  0.00  0.00    -0.274 OA
BRANCH  42  45
ATOM     45  C   LIG    1       11.026   3.037  -1.596  0.00  0.00    +0.199 C 
BRANCH  45  46
ATOM     46  C   LIG    1       11.616   2.300  -2.700  0.00  0.00    +0.228 C 
ATOM     47  N   LIG    1       11.583   0.919  -2.869  0.00  0.00    -0.328 N 
ATOM     48  H   LIG    1       12.396   0.372  -2.437  0.00  0.00    +0.145 HD
ATOM     49  H   LIG    1       10.843   0.418  -3.376  0.00  0.00    +0.145 HD
ATOM     50  O   LIG    1       12.220   3.016  -3.590  0.00  0.00    -0.274 OA
ENDBRANCH  45  46
ENDBRANCH  42  45
ENDBRANCH  40  41
BRANCH  40  51
ATOM     51  C   LIG    1        9.389   0.085   1.222  0.00  0.00    +0.034 C 
BRANCH  51  52
ATOM     52  C   LIG    1        9.912  -1.230   0.757  0.00  0.00    -0.015 C 
ATOM     53  C   LIG    1       10.747  -1.795   1.915  0.00  0.00    +0.007 C 
ATOM     54  C   LIG    1       10.868  -1.102  -0.431  0.00  0.00    +0.007 C 
ENDBRANCH  51  52
ENDBRANCH  40  51
ENDBRANCH  38  40
ENDBRANCH  35  36
ENDBRANCH  32  35
ENDBRANCH   7  31
BRANCH  18  55
ATOM     55  C   LIG    1       -7.115  -2.028  -0.998  0.00  0.00    +0.015 C 
ATOM     56  C   LIG    1       -6.752  -3.293  -1.719  0.00  0.00    +0.010 C 
BRANCH  55  57
ATOM     57  C   LIG    1       -8.227  -2.381  -0.034  0.00  0.00    +0.002 C 
ATOM     58  C   LIG    1       -7.849  -3.414   0.976  0.00  0.00    +0.004 C 
ENDBRANCH  55  57
ENDBRANCH  18  55
BRANCH  22  59
ATOM     59  C   LIG    1       -5.050   2.544   1.660  0.00  0.00    +0.067 C 
BRANCH  59  60
ATOM     60  C   LIG    1       -6.179   3.497   1.713  0.00  0.00    -0.045 A 
ATOM     61  C   LIG    1       -7.467   3.179   2.078  0.00  0.00    +0.007 A 
ATOM     62  C   LIG    1       -8.480   4.122   2.117  0.00  0.00    +0.045 A 
ATOM     63  C   LIG    1       -8.194   5.431   1.779  0.00  0.00    +0.117 A 
ATOM     64  C   LIG    1       -6.919   5.798   1.407  0.00  0.00    +0.045 A 
ATOM     65  C   LIG    1       -5.926   4.815   1.380  0.00  0.00    +0.007 A 
BRANCH  63  66
ATOM     66  O   LIG    1       -9.175   6.420   1.802  0.00  0.00    -0.507 OA
ATOM     67  H   LIG    1       -9.338   6.960   2.651  0.00  0.00    +0.292 HD
ENDBRANCH  63  66
ENDBRANCH  59  60
ENDBRANCH  22  59
BRANCH  15  68
ATOM     68  C   LIG    1       -3.263  -3.729  -0.696  0.00  0.00    +0.041 C 
BRANCH  68  69
ATOM     69  C   LIG    1       -3.458  -4.256  -2.098  0.00  0.00    +0.098 C 
BRANCH  69  70
ATOM     70  C   LIG    1       -3.973  -5.629  -2.004  0.00  0.00    +0.211 C 
ATOM     71  O   LIG    1       -4.000  -6.222  -0.922  0.00  0.00    -0.276 OA
ATOM     72  N   LIG    1       -4.448  -6.294  -3.165  0.00  0.00    -0.329 N 
ATOM     73  H   LIG    1       -5.486  -6.416  -3.314  0.00  0.00    +0.145 HD
ATOM     74  H   LIG    1       -3.749  -6.647  -3.850  0.00  0.00    +0.145 HD
ENDBRANCH  69  70
ENDBRANCH  68  69
ENDBRANCH  15  68
BRANCH  11  75
ATOM     75  C   LIG    1        0.993  -2.947   1.812  0.00  0.00    +0.127 C 
BRANCH  75  76
ATOM     76  C   LIG    1        0.852  -4.421   1.910  0.00  0.00    +0.213 C 
ATOM     77  O   LIG    1        1.683  -5.033   2.628  0.00  0.00    -0.276 OA
ATOM     78  N   LIG    1       -0.191  -5.057   1.208  0.00  0.00    -0.329 N 
ATOM     79  H   LIG    1       -1.092  -5.257   1.673  0.00  0.00    +0.145 HD
ATOM     80  H   LIG    1       -0.070  -5.329   0.234  0.00  0.00    +0.145 HD
ENDBRANCH  75  76
ENDBRANCH  11  75
TORSDOF 19
