REMARK  Name = molecules/YIEDSISPYKQADU-FMQUCBEESA-N.pdb
REMARK                            x       y       z     vdW  Elec       q    Type
REMARK                         _______ _______ _______ _____ _____    ______ ____
ROOT
ATOM      1  C   LIG    1       -2.326  -0.032   0.333  0.00  0.00    +0.047 A 
ATOM      2  C   LIG    1       -1.562  -1.097   0.816  0.00  0.00    +0.026 A 
ATOM      3  C   LIG    1       -0.217  -1.197   0.644  0.00  0.00    +0.031 A 
ATOM      4  C   LIG    1        0.464  -0.190  -0.053  0.00  0.00    +0.087 A 
ATOM      5  C   LIG    1       -0.264   0.865  -0.536  0.00  0.00    +0.034 A 
ATOM      6  C   LIG    1       -1.638   0.935  -0.340  0.00  0.00    -0.027 A 
ATOM      7  C   LIG    1       -2.394   2.098  -0.879  0.00  0.00    +0.046 C 
ENDROOT
BRANCH   1   8
ATOM      8  N   LIG    1       -3.741  -0.029   0.549  0.00  0.00    -0.211 N 
ATOM      9  C   LIG    1       -4.376   0.809   1.492  0.00  0.00    +0.223 C 
ATOM     10  O   LIG    1       -3.643   1.594   2.164  0.00  0.00    -0.275 OA
ATOM     11  C   LIG    1       -5.829   0.830   1.746  0.00  0.00    +0.110 C 
ATOM     12  C   LIG    1       -4.516  -0.915  -0.227  0.00  0.00    +0.223 C 
ATOM     13  O   LIG    1       -5.765  -0.960  -0.095  0.00  0.00    -0.275 OA
ATOM     14  C   LIG    1       -3.940  -1.842  -1.234  0.00  0.00    +0.110 C 
ENDBRANCH   1   8
BRANCH   4  15
ATOM     15  N   LIG    1        1.842  -0.390  -0.203  0.00  0.00    -0.149 NA
ATOM     16  N   LIG    1        2.735   0.427  -0.488  0.00  0.00    -0.149 NA
BRANCH  16  17
ATOM     17  C   LIG    1        4.123   0.063  -0.608  0.00  0.00    +0.089 A 
ATOM     18  C   LIG    1        4.870   0.052   0.544  0.00  0.00    -0.023 A 
ATOM     19  C   LIG    1        4.250   0.417   1.841  0.00  0.00    +0.046 C 
ATOM     20  C   LIG    1        6.227  -0.298   0.525  0.00  0.00    +0.005 A 
ATOM     21  C   LIG    1        6.823  -0.639  -0.677  0.00  0.00    +0.000 A 
ATOM     22  C   LIG    1        6.057  -0.622  -1.821  0.00  0.00    +0.002 A 
ATOM     23  C   LIG    1        4.712  -0.274  -1.795  0.00  0.00    +0.030 A 
ENDBRANCH  16  17
ENDBRANCH   4  15
TORSDOF 3
