REMARK  Name = molecules/YJGVMLPVUAXIQN-XVVDYKMHSA-N.pdb
REMARK                            x       y       z     vdW  Elec       q    Type
REMARK                         _______ _______ _______ _____ _____    ______ ____
ROOT
ATOM      1  O   LIG    1       -0.812   2.519   2.460  0.00  0.00    -0.250 OA
ATOM      2  C   LIG    1        0.407   2.283   2.355  0.00  0.00    +0.312 C 
ATOM      3  O   LIG    1        1.276   2.196   3.432  0.00  0.00    -0.464 OA
ATOM      4  C   LIG    1        2.614   1.966   2.944  0.00  0.00    +0.239 C 
ATOM      5  C   LIG    1        2.307   1.187   1.711  0.00  0.00    +0.074 C 
ATOM      6  C   LIG    1        3.364   1.229   0.633  0.00  0.00    +0.152 C 
ATOM      7  C   LIG    1        2.799   0.377  -0.445  0.00  0.00    -0.011 A 
ATOM      8  C   LIG    1        1.457   0.440  -0.715  0.00  0.00    -0.030 A 
ATOM      9  C   LIG    1        0.542   1.348   0.021  0.00  0.00    +0.064 C 
ATOM     10  C   LIG    1        0.956  -0.390  -1.736  0.00  0.00    +0.054 A 
ATOM     11  C   LIG    1        1.784  -1.237  -2.441  0.00  0.00    +0.167 A 
ATOM     12  C   LIG    1        3.132  -1.293  -2.162  0.00  0.00    +0.167 A 
ATOM     13  O   LIG    1        3.743  -2.213  -3.001  0.00  0.00    -0.453 OA
ATOM     14  C   LIG    1        2.709  -2.885  -3.700  0.00  0.00    +0.466 C 
ATOM     15  O   LIG    1        1.521  -2.129  -3.469  0.00  0.00    -0.453 OA
ATOM     16  C   LIG    1        3.635  -0.476  -1.154  0.00  0.00    +0.056 A 
ATOM     17  C   LIG    1        1.176   2.053   1.145  0.00  0.00    +0.118 C 
ENDROOT
BRANCH   9  18
ATOM     18  C   LIG    1       -0.760   0.707   0.308  0.00  0.00    -0.032 A 
ATOM     19  C   LIG    1       -1.064  -0.023   1.421  0.00  0.00    +0.054 A 
ATOM     20  C   LIG    1       -2.317  -0.595   1.611  0.00  0.00    +0.165 A 
ATOM     21  C   LIG    1       -3.317  -0.439   0.657  0.00  0.00    +0.204 A 
ATOM     22  C   LIG    1       -3.032   0.294  -0.473  0.00  0.00    +0.165 A 
ATOM     23  C   LIG    1       -1.778   0.847  -0.627  0.00  0.00    +0.054 A 
BRANCH  20  24
ATOM     24  O   LIG    1       -2.584  -1.329   2.755  0.00  0.00    -0.491 OA
ATOM     25  C   LIG    1       -1.556  -1.478   3.712  0.00  0.00    +0.277 C 
ENDBRANCH  20  24
BRANCH  21  26
ATOM     26  O   LIG    1       -4.580  -1.001   0.824  0.00  0.00    -0.488 OA
ATOM     27  C   LIG    1       -4.860  -2.317   0.344  0.00  0.00    +0.277 C 
ENDBRANCH  21  26
BRANCH  22  28
ATOM     28  O   LIG    1       -4.036   0.446  -1.421  0.00  0.00    -0.491 OA
ATOM     29  C   LIG    1       -3.888   1.164  -2.616  0.00  0.00    +0.277 C 
ENDBRANCH  22  28
ENDBRANCH   9  18
BRANCH   6  30
ATOM     30  O   LIG    1        4.595   0.767   1.074  0.00  0.00    -0.387 OA
ATOM     31  H   LIG    1        4.755   0.910   2.026  0.00  0.00    +0.210 HD
ENDBRANCH   6  30
TORSDOF 5
