REMARK  Name = molecules/YKPUWZUDDOIDPM-VURMDHGXSA-N.pdb
REMARK                            x       y       z     vdW  Elec       q    Type
REMARK                         _______ _______ _______ _____ _____    ______ ____
ROOT
ATOM      1  N   LIG    1       -1.530   2.557   0.925  0.00  0.00    -0.311 N 
ATOM      2  H   LIG    1       -1.607   2.861   1.951  0.00  0.00    +0.149 HD
ATOM      3  C   LIG    1       -0.407   1.751   0.613  0.00  0.00    +0.213 C 
ATOM      4  O   LIG    1       -0.245   1.372  -0.559  0.00  0.00    -0.276 OA
ENDROOT
BRANCH   1   5
ATOM      5  C   LIG    1       -2.560   3.011   0.072  0.00  0.00    +0.139 C 
BRANCH   5   7
ATOM      6  C   LIG    1       -3.530   0.757  -0.327  0.00  0.00    +0.054 A 
ATOM      7  C   LIG    1       -3.677   2.076  -0.089  0.00  0.00    -0.027 A 
ATOM      8  C   LIG    1       -5.006   2.535  -0.003  0.00  0.00    +0.009 A 
ATOM      9  C   LIG    1       -6.088   1.725  -0.144  0.00  0.00    +0.049 A 
ATOM     10  C   LIG    1       -5.892   0.386  -0.386  0.00  0.00    +0.158 A 
ATOM     11  C   LIG    1       -4.621  -0.116  -0.480  0.00  0.00    +0.162 A 
BRANCH  10  12
ATOM     12  O   LIG    1       -6.979  -0.464  -0.535  0.00  0.00    -0.503 OA
ATOM     13  H   LIG    1       -7.944  -0.122  -0.471  0.00  0.00    +0.292 HD
ENDBRANCH  10  12
BRANCH  11  14
ATOM     14  O   LIG    1       -4.390  -1.453  -0.722  0.00  0.00    -0.491 OA
ATOM     15  C   LIG    1       -3.118  -2.027  -0.833  0.00  0.00    +0.277 C 
ENDBRANCH  11  14
ENDBRANCH   5   7
ENDBRANCH   1   5
BRANCH   3  16
ATOM     16  C   LIG    1        0.546   1.377   1.677  0.00  0.00    +0.096 C 
BRANCH  16  17
ATOM     17  C   LIG    1        1.614   0.447   1.204  0.00  0.00    +0.009 C 
BRANCH  17  18
ATOM     18  C   LIG    1        1.025  -0.840   0.755  0.00  0.00    +0.004 C 
BRANCH  18  19
ATOM     19  C   LIG    1        2.152  -1.808   0.278  0.00  0.00    +0.027 C 
BRANCH  19  20
ATOM     20  C   LIG    1        2.805  -1.140  -0.820  0.00  0.00    -0.031 C 
ATOM     21  C   LIG    1        4.028  -0.775  -0.978  0.00  0.00    -0.028 C 
BRANCH  21  22
ATOM     22  C   LIG    1        5.133  -0.926  -0.084  0.00  0.00    +0.005 C 
ATOM     23  C   LIG    1        5.029  -1.530   1.255  0.00  0.00    +0.011 C 
ATOM     24  C   LIG    1        6.182  -1.792  -0.844  0.00  0.00    +0.011 C 
ENDBRANCH  21  22
ENDBRANCH  19  20
ENDBRANCH  18  19
ENDBRANCH  17  18
ENDBRANCH  16  17
ENDBRANCH   3  16
TORSDOF 10
