REMARK  Name = molecules/YKPUWZUDDOIDPM-SOFGYWHQSA-N.pdb
REMARK                            x       y       z     vdW  Elec       q    Type
REMARK                         _______ _______ _______ _____ _____    ______ ____
ROOT
ATOM      1  N   LIG    1        2.036  -1.262  -0.140  0.00  0.00    -0.311 N 
ATOM      2  H   LIG    1        2.869  -0.736   0.844  0.00  0.00    +0.149 HD
ATOM      3  C   LIG    1        0.918  -0.763   0.503  0.00  0.00    +0.213 C 
ATOM      4  O   LIG    1        0.929  -0.103   1.517  0.00  0.00    -0.276 OA
ENDROOT
BRANCH   1   5
ATOM      5  C   LIG    1        3.128  -1.741  -0.753  0.00  0.00    +0.139 C 
BRANCH   5   6
ATOM      6  C   LIG    1        3.969  -0.603  -1.305  0.00  0.00    -0.027 A 
ATOM      7  C   LIG    1        5.019  -0.199  -0.485  0.00  0.00    +0.054 A 
ATOM      8  C   LIG    1        5.785   0.867  -0.870  0.00  0.00    +0.162 A 
ATOM      9  C   LIG    1        5.491   1.506  -2.051  0.00  0.00    +0.158 A 
ATOM     10  C   LIG    1        4.425   1.091  -2.880  0.00  0.00    +0.049 A 
ATOM     11  C   LIG    1        3.658   0.008  -2.483  0.00  0.00    +0.009 A 
BRANCH   8  12
ATOM     12  O   LIG    1        6.845   1.313  -0.094  0.00  0.00    -0.491 OA
ATOM     13  C   LIG    1        7.243   0.771   1.116  0.00  0.00    +0.277 C 
ENDBRANCH   8  12
BRANCH   9  14
ATOM     14  O   LIG    1        6.242   2.581  -2.461  0.00  0.00    -0.503 OA
ATOM     15  H   LIG    1        6.051   3.071  -3.302  0.00  0.00    +0.292 HD
ENDBRANCH   9  14
ENDBRANCH   5   6
ENDBRANCH   1   5
BRANCH   3  16
ATOM     16  C   LIG    1       -0.368  -1.129  -0.207  0.00  0.00    +0.096 C 
BRANCH  16  17
ATOM     17  C   LIG    1       -1.519  -0.399   0.339  0.00  0.00    +0.009 C 
BRANCH  17  18
ATOM     18  C   LIG    1       -1.825  -0.674   1.775  0.00  0.00    +0.004 C 
BRANCH  18  19
ATOM     19  C   LIG    1       -3.063   0.130   2.207  0.00  0.00    +0.027 C 
BRANCH  19  20
ATOM     20  C   LIG    1       -4.228  -0.281   1.323  0.00  0.00    -0.031 C 
ATOM     21  C   LIG    1       -4.844   0.600   0.568  0.00  0.00    -0.028 C 
BRANCH  21  22
ATOM     22  C   LIG    1       -5.970   0.370  -0.340  0.00  0.00    +0.005 C 
ATOM     23  C   LIG    1       -7.092   1.323   0.086  0.00  0.00    +0.011 C 
ATOM     24  C   LIG    1       -6.472  -1.034  -0.445  0.00  0.00    +0.011 C 
ENDBRANCH  21  22
ENDBRANCH  19  20
ENDBRANCH  18  19
ENDBRANCH  17  18
ENDBRANCH  16  17
ENDBRANCH   3  16
TORSDOF 10
