REMARK  Name = molecules/YLJREFDVOIBQDA-UHFFFAOYSA-N.pdb
REMARK                            x       y       z     vdW  Elec       q    Type
REMARK                         _______ _______ _______ _____ _____    ______ ____
ROOT
ATOM      1  C   LIG    1        0.470   1.002  -0.328  0.00  0.00    +0.039 A 
ATOM      2  C   LIG    1        1.622   0.330   0.001  0.00  0.00    +0.021 A 
ATOM      3  C   LIG    1        1.515  -0.990   0.386  0.00  0.00    +0.073 A 
ATOM      4  C   LIG    1        2.708  -1.647   0.715  0.00  0.00    +0.028 A 
ATOM      5  C   LIG    1        3.935  -1.022   0.663  0.00  0.00    +0.002 A 
ATOM      6  C   LIG    1        3.986   0.302   0.271  0.00  0.00    +0.001 A 
ATOM      7  N   LIG    1        0.340  -1.634   0.450  0.00  0.00    -0.251 NA
ATOM      8  C   LIG    1       -0.827  -1.006   0.132  0.00  0.00    +0.047 A 
ATOM      9  C   LIG    1       -2.118  -1.758   0.216  0.00  0.00    +0.056 C 
ATOM     10  C   LIG    1       -3.256  -0.905  -0.234  0.00  0.00    +0.006 C 
ATOM     11  C   LIG    1       -3.054   0.530   0.261  0.00  0.00    +0.005 C 
ATOM     12  C   LIG    1       -1.960   1.092  -0.624  0.00  0.00    +0.039 C 
ATOM     13  C   LIG    1        2.845   0.973  -0.057  0.00  0.00    +0.012 A 
ATOM     14  C   LIG    1       -0.724   0.311  -0.252  0.00  0.00    -0.005 A 
ENDROOT
BRANCH   1  15
ATOM     15  N   LIG    1        0.560   2.353  -0.724  0.00  0.00    -0.357 N 
ATOM     16  H   LIG    1        0.202   3.088  -0.090  0.00  0.00    +0.142 HD
ATOM     17  H   LIG    1        0.975   2.620  -1.627  0.00  0.00    +0.142 HD
ENDBRANCH   1  15
TORSDOF 1
