REMARK  Name = molecules/YLMPBJUYFTWHKJ-UHFFFAOYSA-N.pdb
REMARK                            x       y       z     vdW  Elec       q    Type
REMARK                         _______ _______ _______ _____ _____    ______ ____
ROOT
ATOM      1  C   LIG    1       -1.557   1.068  -0.414  0.00  0.00    +0.168 A 
ATOM      2  C   LIG    1       -0.884   0.089   0.334  0.00  0.00    +0.180 A 
ATOM      3  C   LIG    1       -1.629  -0.898   0.931  0.00  0.00    +0.038 A 
ATOM      4  C   LIG    1       -0.943  -1.956   1.735  0.00  0.00    +0.051 C 
ATOM      5  C   LIG    1       -2.999  -0.915   0.791  0.00  0.00    +0.131 A 
ATOM      6  C   LIG    1       -3.656   0.060   0.048  0.00  0.00    +0.028 A 
ATOM      7  C   LIG    1       -5.033   0.041  -0.092  0.00  0.00    +0.012 A 
ATOM      8  C   LIG    1       -5.734   0.982  -0.817  0.00  0.00    +0.001 A 
ATOM      9  C   LIG    1       -4.993   1.976  -1.419  0.00  0.00    +0.001 A 
ATOM     10  C   LIG    1       -3.619   2.016  -1.295  0.00  0.00    +0.012 A 
ATOM     11  C   LIG    1       -2.927   1.072  -0.569  0.00  0.00    +0.031 A 
ENDROOT
BRANCH   1  12
ATOM     12  O   LIG    1       -0.804   2.043  -1.001  0.00  0.00    -0.503 OA
ATOM     13  H   LIG    1       -1.170   2.782  -1.550  0.00  0.00    +0.292 HD
ENDBRANCH   1  12
BRANCH   5  14
ATOM     14  O   LIG    1       -3.786  -1.905   1.385  0.00  0.00    -0.506 OA
ATOM     15  H   LIG    1       -3.403  -2.647   1.938  0.00  0.00    +0.292 HD
ENDBRANCH   5  14
BRANCH   2  16
ATOM     16  O   LIG    1        0.498   0.166   0.434  0.00  0.00    -0.418 OA
BRANCH  16  17
ATOM     17  C   LIG    1        1.348  -0.447  -0.462  0.00  0.00    +0.345 C 
ATOM     18  O   LIG    1        0.857  -1.102  -1.409  0.00  0.00    -0.245 OA
BRANCH  17  19
ATOM     19  C   LIG    1        2.808  -0.317  -0.286  0.00  0.00    +0.060 A 
ATOM     20  C   LIG    1        3.319   0.411   0.766  0.00  0.00    +0.017 A 
ATOM     21  C   LIG    1        4.683   0.536   0.936  0.00  0.00    +0.023 A 
ATOM     22  C   LIG    1        5.582  -0.065   0.057  0.00  0.00    +0.025 A 
ATOM     23  C   LIG    1        5.057  -0.786  -0.985  0.00  0.00    +0.023 A 
ATOM     24  C   LIG    1        3.685  -0.917  -1.164  0.00  0.00    +0.017 A 
BRANCH  22  25
ATOM     25  N   LIG    1        6.973   0.086   0.264  0.00  0.00    -0.358 N 
ATOM     26  H   LIG    1        7.373   1.035   0.377  0.00  0.00    +0.142 HD
ATOM     27  H   LIG    1        7.580  -0.748   0.301  0.00  0.00    +0.142 HD
ENDBRANCH  22  25
ENDBRANCH  17  19
ENDBRANCH  16  17
ENDBRANCH   2  16
TORSDOF 6
