REMARK  Name = molecules/YLPBXIKWXNRACS-PHIMTYICSA-N.pdb
REMARK                            x       y       z     vdW  Elec       q    Type
REMARK                         _______ _______ _______ _____ _____    ______ ____
ROOT
ATOM      1  C   LIG    1       -0.487   1.141  -0.193  0.00  0.00    +0.066 A 
ATOM      2  C   LIG    1        0.882   0.908  -0.363  0.00  0.00    +0.040 A 
ATOM      3  I   LIG    1        2.190   2.513   0.050  0.00  0.00    -0.042 I 
ATOM      4  C   LIG    1        1.381  -0.308  -0.779  0.00  0.00    +0.066 A 
ATOM      5  C   LIG    1        0.458  -1.323  -1.034  0.00  0.00    +0.049 A 
ATOM      6  C   LIG    1       -0.892  -1.153  -0.886  0.00  0.00    +0.061 A 
ATOM      7  I   LIG    1        1.189  -3.204  -1.676  0.00  0.00    -0.041 I 
ATOM      8  C   LIG    1       -1.339   0.090  -0.464  0.00  0.00    +0.049 A 
ATOM      9  I   LIG    1       -3.411   0.334  -0.242  0.00  0.00    -0.041 I 
ENDROOT
BRANCH   4  10
ATOM     10  C   LIG    1        2.808  -0.521  -0.947  0.00  0.00    +0.249 C 
ATOM     11  N   LIG    1        3.637  -0.994   0.113  0.00  0.00    -0.298 N 
ATOM     12  C   LIG    1        3.010  -1.263   1.390  0.00  0.00    +0.132 C 
ATOM     13  O   LIG    1        3.353  -0.290  -2.050  0.00  0.00    -0.270 OA
BRANCH  11  14
ATOM     14  C   LIG    1        5.049  -1.210  -0.035  0.00  0.00    +0.141 C 
BRANCH  14  15
ATOM     15  C   LIG    1        5.868   0.006   0.297  0.00  0.00    +0.157 C 
BRANCH  15  16
ATOM     16  O   LIG    1        7.219  -0.338   0.112  0.00  0.00    -0.388 OA
ATOM     17  H   LIG    1        7.391  -0.504  -0.835  0.00  0.00    +0.210 HD
ENDBRANCH  15  16
BRANCH  15  18
ATOM     18  C   LIG    1        5.722   0.326   1.786  0.00  0.00    +0.188 C 
BRANCH  18  19
ATOM     19  O   LIG    1        6.533   1.365   2.168  0.00  0.00    -0.392 OA
ATOM     20  H   LIG    1        7.115   1.713   1.446  0.00  0.00    +0.210 HD
ENDBRANCH  18  19
ENDBRANCH  15  18
ENDBRANCH  14  15
ENDBRANCH  11  14
ENDBRANCH   4  10
BRANCH   1  21
ATOM     21  C   LIG    1       -0.960   2.447   0.250  0.00  0.00    +0.249 C 
ATOM     22  O   LIG    1       -1.067   2.615   1.493  0.00  0.00    -0.270 OA
ATOM     23  N   LIG    1       -1.273   3.454  -0.695  0.00  0.00    -0.298 N 
ATOM     24  C   LIG    1       -1.126   3.183  -2.098  0.00  0.00    +0.132 C 
BRANCH  23  25
ATOM     25  C   LIG    1       -1.736   4.741  -0.246  0.00  0.00    +0.141 C 
BRANCH  25  26
ATOM     26  C   LIG    1       -3.244   4.773  -0.124  0.00  0.00    +0.157 C 
BRANCH  26  27
ATOM     27  O   LIG    1       -3.673   3.820   0.790  0.00  0.00    -0.388 OA
ATOM     28  H   LIG    1       -4.558   3.444   0.552  0.00  0.00    +0.210 HD
ENDBRANCH  26  27
BRANCH  26  29
ATOM     29  C   LIG    1       -3.759   6.148   0.186  0.00  0.00    +0.188 C 
BRANCH  29  30
ATOM     30  O   LIG    1       -3.334   6.575   1.444  0.00  0.00    -0.392 OA
ATOM     31  H   LIG    1       -3.941   6.152   2.111  0.00  0.00    +0.210 HD
ENDBRANCH  29  30
ENDBRANCH  26  29
ENDBRANCH  25  26
ENDBRANCH  23  25
ENDBRANCH   1  21
BRANCH   6  32
ATOM     32  N   LIG    1       -1.760  -2.237  -1.165  0.00  0.00    -0.283 N 
ATOM     33  C   LIG    1       -2.159  -3.186  -0.200  0.00  0.00    +0.225 C 
ATOM     34  O   LIG    1       -1.720  -3.057   0.964  0.00  0.00    -0.275 OA
ATOM     35  H   LIG    1       -2.137  -2.361  -2.131  0.00  0.00    +0.155 HD
BRANCH  33  36
ATOM     36  C   LIG    1       -3.064  -4.309  -0.510  0.00  0.00    +0.126 C 
BRANCH  36  37
ATOM     37  C   LIG    1       -3.416  -5.101   0.744  0.00  0.00    +0.170 C 
BRANCH  37  38
ATOM     38  O   LIG    1       -4.258  -6.148   0.466  0.00  0.00    -0.394 OA
ATOM     39  H   LIG    1       -5.207  -5.977   0.641  0.00  0.00    +0.209 HD
ENDBRANCH  37  38
ENDBRANCH  36  37
BRANCH  36  40
ATOM     40  C   LIG    1       -2.478  -5.195  -1.571  0.00  0.00    +0.170 C 
BRANCH  40  41
ATOM     41  O   LIG    1       -3.277  -6.260  -1.902  0.00  0.00    -0.394 OA
ATOM     42  H   LIG    1       -2.832  -7.138  -1.814  0.00  0.00    +0.209 HD
ENDBRANCH  40  41
ENDBRANCH  36  40
ENDBRANCH  33  36
ENDBRANCH   6  32
TORSDOF 18
