REMARK  Name = molecules/YLRFCQOZQXIBAB-RBZZARIASA-N.pdb
REMARK                            x       y       z     vdW  Elec       q    Type
REMARK                         _______ _______ _______ _____ _____    ______ ____
ROOT
ATOM      1  F   LIG    1       -0.716  -1.042   1.361  0.00  0.00    -0.238 F 
ATOM      2  C   LIG    1       -0.792  -0.439   0.090  0.00  0.00    +0.149 C 
ATOM      3  C   LIG    1       -0.073   0.908   0.335  0.00  0.00    +0.034 C 
ATOM      4  C   LIG    1       -0.599   1.678   1.480  0.00  0.00    +0.011 C 
ATOM      5  C   LIG    1       -2.104   1.701   1.630  0.00  0.00    +0.032 C 
ATOM      6  C   LIG    1       -2.688   0.405   1.200  0.00  0.00    -0.057 C 
ATOM      7  C   LIG    1       -3.525  -0.266   1.958  0.00  0.00    +0.046 C 
ATOM      8  C   LIG    1       -4.075  -1.558   1.583  0.00  0.00    +0.156 C 
ATOM      9  O   LIG    1       -5.025  -2.120   2.137  0.00  0.00    -0.293 OA
ATOM     10  C   LIG    1       -3.427  -2.263   0.418  0.00  0.00    +0.080 C 
ATOM     11  C   LIG    1       -3.166  -1.138  -0.566  0.00  0.00    +0.022 C 
ATOM     12  C   LIG    1        1.320   0.476   0.650  0.00  0.00    +0.004 C 
ATOM     13  C   LIG    1        2.261   1.447   1.214  0.00  0.00    +0.007 C 
ATOM     14  C   LIG    1        3.621   0.831   0.846  0.00  0.00    +0.035 C 
ATOM     15  C   LIG    1        3.317  -0.261  -0.191  0.00  0.00    +0.069 C 
ATOM     16  C   LIG    1        3.264  -1.579   0.511  0.00  0.00    +0.042 C 
ATOM     17  C   LIG    1        1.985   0.207  -0.708  0.00  0.00    +0.002 C 
ATOM     18  C   LIG    1        2.248   1.512  -1.447  0.00  0.00    +0.014 C 
ATOM     19  C   LIG    1        1.177  -0.715  -1.487  0.00  0.00    +0.044 C 
ATOM     20  C   LIG    1       -2.226  -0.099  -0.125  0.00  0.00    +0.026 C 
ATOM     21  C   LIG    1       -2.380   1.075  -1.098  0.00  0.00    +0.019 C 
ATOM     22  C   LIG    1       -0.086  -1.268  -0.885  0.00  0.00    +0.153 C 
ENDROOT
BRANCH  15  23
ATOM     23  O   LIG    1        4.281  -0.222  -1.187  0.00  0.00    -0.388 OA
ATOM     24  H   LIG    1        5.166  -0.439  -0.811  0.00  0.00    +0.210 HD
ENDBRANCH  15  23
BRANCH  22  25
ATOM     25  O   LIG    1       -0.837  -1.716  -1.979  0.00  0.00    -0.389 OA
ATOM     26  H   LIG    1       -0.357  -2.466  -2.409  0.00  0.00    +0.210 HD
ENDBRANCH  22  25
TORSDOF 2
