REMARK  Name = molecules/YLXDSYKOBKBWJQ-LBPRGKRZSA-N.pdb
REMARK                            x       y       z     vdW  Elec       q    Type
REMARK                         _______ _______ _______ _____ _____    ______ ____
ROOT
ATOM      1  C   LIG    1       -0.377  -0.031  -0.617  0.00  0.00    +0.021 C 
ATOM      2  C   LIG    1       -1.856   0.012  -0.440  0.00  0.00    -0.034 A 
ATOM      3  C   LIG    1       -2.649  -0.074   0.679  0.00  0.00    +0.001 A 
ATOM      4  C   LIG    1       -2.306  -0.239   2.106  0.00  0.00    +0.080 C 
ATOM      5  C   LIG    1       -3.602  -0.717   2.712  0.00  0.00    +0.234 C 
ATOM      6  O   LIG    1       -4.592  -0.121   1.883  0.00  0.00    -0.491 OA
ATOM      7  C   LIG    1       -4.027  -0.009   0.613  0.00  0.00    +0.124 A 
ATOM      8  C   LIG    1       -4.636   0.147  -0.611  0.00  0.00    +0.046 A 
ATOM      9  C   LIG    1       -3.837   0.235  -1.755  0.00  0.00    +0.007 A 
ATOM     10  C   LIG    1       -2.456   0.168  -1.671  0.00  0.00    -0.043 A 
ATOM     11  C   LIG    1       -1.397   0.234  -2.718  0.00  0.00    +0.036 C 
ATOM     12  C   LIG    1       -0.289  -0.565  -2.038  0.00  0.00    +0.013 C 
ENDROOT
BRANCH   1  13
ATOM     13  C   LIG    1        0.247   1.318  -0.536  0.00  0.00    +0.027 C 
BRANCH  13  14
ATOM     14  C   LIG    1        1.741   1.177  -0.715  0.00  0.00    +0.105 C 
BRANCH  14  15
ATOM     15  N   LIG    1        2.355   0.354   0.276  0.00  0.00    -0.315 N 
ATOM     16  H   LIG    1        1.778  -0.072   1.022  0.00  0.00    +0.149 HD
ATOM     17  C   LIG    1        3.744   0.110   0.260  0.00  0.00    +0.213 C 
ATOM     18  O   LIG    1        4.452   0.625  -0.639  0.00  0.00    -0.276 OA
BRANCH  17  19
ATOM     19  C   LIG    1        4.416  -0.739   1.272  0.00  0.00    +0.092 C 
ATOM     20  C   LIG    1        5.887  -0.852   1.054  0.00  0.00    +0.013 C 
ENDBRANCH  17  19
ENDBRANCH  14  15
ENDBRANCH  13  14
ENDBRANCH   1  13
TORSDOF 4
