REMARK  Name = molecules/YMDXZJFXQJVXBF-STHAYSLISA-N.pdb
REMARK                            x       y       z     vdW  Elec       q    Type
REMARK                         _______ _______ _______ _____ _____    ______ ____
ROOT
ATOM      1  P   LIG    1        1.278   0.385   0.244  0.00  0.00    +0.359 P 
ATOM      2  O   LIG    1        0.969   0.675   1.697  0.00  0.00    -0.256 OA
ENDROOT
BRANCH   1   6
ATOM      3  C   LIG    1       -2.032   0.345  -0.086  0.00  0.00    +0.041 C 
ATOM      4  C   LIG    1       -1.198  -0.848  -0.480  0.00  0.00    +0.157 C 
ATOM      5  O   LIG    1       -0.560  -1.571   0.579  0.00  0.00    -0.356 OA
ATOM      6  C   LIG    1        0.236  -0.867  -0.462  0.00  0.00    +0.260 C 
ENDBRANCH   1   6
BRANCH   1   7
ATOM      7  O   LIG    1        2.912  -0.127   0.202  0.00  0.00    -0.322 OA
ATOM      8  H   LIG    1        2.961  -1.027  -0.216  0.00  0.00    +0.220 HD
ENDBRANCH   1   7
BRANCH   1   9
ATOM      9  O   LIG    1        1.224   1.858  -0.582  0.00  0.00    -0.322 OA
ATOM     10  H   LIG    1        2.056   2.362  -0.317  0.00  0.00    +0.220 HD
ENDBRANCH   1   9
TORSDOF 3
