REMARK  Name = molecules/YMFGJWGABDOFID-UHFFFAOYSA-N.pdb
REMARK                            x       y       z     vdW  Elec       q    Type
REMARK                         _______ _______ _______ _____ _____    ______ ____
ROOT
ATOM      1  C   LIG    1        1.171  -0.015  -0.022  0.00  0.00    +0.224 A 
ATOM      2  N   LIG    1        2.433  -0.333   0.394  0.00  0.00    -0.181 NA
ATOM      3  C   LIG    1        3.500   0.173  -0.202  0.00  0.00    +0.217 A 
ATOM      4  N   LIG    1        3.375   1.020  -1.242  0.00  0.00    -0.203 NA
ATOM      5  C   LIG    1        2.153   1.363  -1.688  0.00  0.00    +0.228 A 
ATOM      6  N   LIG    1        1.106   0.820  -1.046  0.00  0.00    -0.203 NA
ENDROOT
BRANCH   3   7
ATOM      7  N   LIG    1        4.800  -0.196   0.278  0.00  0.00    -0.327 N 
ATOM      8  H   LIG    1        5.208   0.292   1.081  0.00  0.00    +0.145 HD
ATOM      9  H   LIG    1        5.281  -0.964  -0.227  0.00  0.00    +0.145 HD
ENDBRANCH   3   7
BRANCH   1  10
ATOM     10  N   LIG    1        0.087  -0.585   0.672  0.00  0.00    -0.284 N 
ATOM     11  H   LIG    1        0.294  -1.232   1.488  0.00  0.00    +0.155 HD
BRANCH  10  12
ATOM     12  C   LIG    1       -1.289  -0.399   0.405  0.00  0.00    +0.034 A 
ATOM     13  C   LIG    1       -2.228  -0.821   1.368  0.00  0.00    +0.023 A 
ATOM     14  C   LIG    1       -3.557  -0.653   1.100  0.00  0.00    +0.002 A 
ATOM     15  C   LIG    1       -4.001  -0.083  -0.086  0.00  0.00    +0.000 A 
ATOM     16  C   LIG    1       -3.067   0.321  -1.012  0.00  0.00    +0.002 A 
ATOM     17  C   LIG    1       -1.693   0.167  -0.776  0.00  0.00    +0.023 A 
ENDBRANCH  10  12
ENDBRANCH   1  10
TORSDOF 3
