REMARK  Name = molecules/YMFIJXDFAPHJIN-SECBINFHSA-N.pdb
REMARK                            x       y       z     vdW  Elec       q    Type
REMARK                         _______ _______ _______ _____ _____    ______ ____
ROOT
ATOM      1  C   LIG    1        4.014  -0.861   0.026  0.00  0.00    +0.063 A 
ATOM      2  C   LIG    1        2.749  -0.742   0.517  0.00  0.00    +0.078 A 
ATOM      3  I   LIG    1        2.478   0.163   2.409  0.00  0.00    -0.038 I 
ATOM      4  C   LIG    1        1.619  -1.187  -0.168  0.00  0.00    +0.149 A 
ATOM      5  C   LIG    1        1.825  -1.767  -1.383  0.00  0.00    +0.057 A 
ATOM      6  C   LIG    1        3.123  -1.901  -1.911  0.00  0.00    +0.034 A 
ATOM      7  I   LIG    1        0.245  -2.541  -2.546  0.00  0.00    -0.040 I 
ATOM      8  C   LIG    1        4.203  -1.442  -1.192  0.00  0.00    +0.037 A 
ATOM      9  I   LIG    1        6.154  -1.625  -1.946  0.00  0.00    -0.042 I 
ENDROOT
BRANCH   1  10
ATOM     10  N   LIG    1        5.116  -0.376   0.798  0.00  0.00    -0.284 N 
ATOM     11  H   LIG    1        5.580  -1.025   1.471  0.00  0.00    +0.155 HD
ATOM     12  C   LIG    1        5.605   0.938   0.694  0.00  0.00    +0.214 C 
ATOM     13  C   LIG    1        6.743   1.370   1.519  0.00  0.00    +0.109 C 
ATOM     14  O   LIG    1        5.069   1.733  -0.102  0.00  0.00    -0.276 OA
ENDBRANCH   1  10
BRANCH   4  15
ATOM     15  O   LIG    1        0.410  -1.030   0.391  0.00  0.00    -0.488 OA
BRANCH  15  16
ATOM     16  C   LIG    1       -0.497   0.000   0.399  0.00  0.00    +0.257 C 
BRANCH  16  17
ATOM     17  C   LIG    1       -1.074   0.472  -0.881  0.00  0.00    +0.200 C 
BRANCH  17  18
ATOM     18  O   LIG    1       -1.968   1.535  -0.711  0.00  0.00    -0.376 OA
BRANCH  18  19
ATOM     19  C   LIG    1       -3.045   1.252   0.080  0.00  0.00    +0.174 C 
BRANCH  19  20
ATOM     20  C   LIG    1       -3.930   0.142  -0.380  0.00  0.00    +0.123 C 
BRANCH  20  21
ATOM     21  C   LIG    1       -5.140   0.123   0.563  0.00  0.00    +0.013 C 
ATOM     22  C   LIG    1       -4.718  -0.112   1.983  0.00  0.00    +0.005 C 
ENDBRANCH  20  21
BRANCH  20  23
ATOM     23  C   LIG    1       -4.490   0.466  -1.729  0.00  0.00    +0.310 C 
ATOM     24  O   LIG    1       -4.201   1.536  -2.307  0.00  0.00    -0.251 OA
BRANCH  23  25
ATOM     25  O   LIG    1       -5.346  -0.417  -2.369  0.00  0.00    -0.480 OA
ATOM     26  H   LIG    1       -6.028  -0.158  -3.048  0.00  0.00    +0.295 HD
ENDBRANCH  23  25
ENDBRANCH  20  23
ENDBRANCH  19  20
ENDBRANCH  18  19
ENDBRANCH  17  18
ENDBRANCH  16  17
ENDBRANCH  15  16
ENDBRANCH   4  15
TORSDOF 10
