REMARK  Name = molecules/YMTINGFKWWXKFG-UHFFFAOYSA-N.pdb
REMARK                            x       y       z     vdW  Elec       q    Type
REMARK                         _______ _______ _______ _____ _____    ______ ____
ROOT
ATOM      1  C   LIG    1        2.858   0.182   1.102  0.00  0.00    -0.005 A 
ATOM      2  C   LIG    1        2.134   1.168   1.808  0.00  0.00    +0.010 A 
ATOM      3  C   LIG    1        0.786   1.347   1.693  0.00  0.00    +0.046 A 
ATOM      4  C   LIG    1        0.058   0.542   0.852  0.00  0.00    +0.122 A 
ATOM      5  C   LIG    1        0.724  -0.416   0.158  0.00  0.00    +0.046 A 
ATOM      6  C   LIG    1        2.115  -0.605   0.275  0.00  0.00    +0.010 A 
ENDROOT
BRANCH   1   7
ATOM      7  C   LIG    1        4.263   0.122   1.358  0.00  0.00    +0.194 C 
ATOM      8  O   LIG    1        4.583   0.441   2.593  0.00  0.00    -0.213 OA
BRANCH   7   9
ATOM      9  C   LIG    1        5.394  -0.207   0.544  0.00  0.00    -0.005 A 
ATOM     10  C   LIG    1        6.614   0.451   0.849  0.00  0.00    +0.008 A 
ATOM     11  C   LIG    1        7.766   0.213   0.151  0.00  0.00    +0.020 A 
ATOM     12  C   LIG    1        7.780  -0.696  -0.897  0.00  0.00    +0.041 A 
ATOM     13  C   LIG    1        6.627  -1.356  -1.229  0.00  0.00    +0.020 A 
ATOM     14 CL   LIG    1        9.226  -1.034  -1.819  0.00  0.00    -0.084 Cl
ATOM     15  C   LIG    1        5.458  -1.085  -0.487  0.00  0.00    +0.008 A 
ENDBRANCH   7   9
ENDBRANCH   1   7
BRANCH   4  16
ATOM     16  O   LIG    1       -1.298   0.771   0.777  0.00  0.00    -0.475 OA
BRANCH  16  17
ATOM     17  C   LIG    1       -2.213   0.067  -0.015  0.00  0.00    +0.200 C 
ATOM     18  C   LIG    1       -2.246  -1.405   0.376  0.00  0.00    +0.067 C 
ATOM     19  C   LIG    1       -1.764   0.195  -1.469  0.00  0.00    +0.067 C 
BRANCH  17  20
ATOM     20  C   LIG    1       -3.575   0.598   0.174  0.00  0.00    +0.351 C 
ATOM     21  O   LIG    1       -3.740   1.562   0.968  0.00  0.00    -0.246 OA
BRANCH  20  22
ATOM     22  O   LIG    1       -4.695   0.115  -0.459  0.00  0.00    -0.459 OA
BRANCH  22  23
ATOM     23  C   LIG    1       -5.990   0.604  -0.294  0.00  0.00    +0.170 C 
ATOM     24  C   LIG    1       -6.967  -0.434   0.200  0.00  0.00    +0.052 C 
ATOM     25  C   LIG    1       -6.483   1.030  -1.683  0.00  0.00    +0.052 C 
ENDBRANCH  22  23
ENDBRANCH  20  22
ENDBRANCH  17  20
ENDBRANCH  16  17
ENDBRANCH   4  16
TORSDOF 7
