REMARK  Name = molecules/YNBADRVTZLEFNH-UHFFFAOYSA-N.pdb
REMARK                            x       y       z     vdW  Elec       q    Type
REMARK                         _______ _______ _______ _____ _____    ______ ____
ROOT
ATOM      1  C   LIG    1       -0.441  -0.304  -0.107  0.00  0.00    +0.077 A 
ATOM      2  C   LIG    1       -0.913   0.943   0.291  0.00  0.00    +0.018 A 
ATOM      3  C   LIG    1       -2.248   1.261   0.340  0.00  0.00    +0.020 A 
ATOM      4  C   LIG    1       -3.134   0.252  -0.037  0.00  0.00    +0.111 A 
ATOM      5  N   LIG    1       -2.705  -0.966  -0.427  0.00  0.00    -0.262 NA
ATOM      6  C   LIG    1       -1.379  -1.230  -0.458  0.00  0.00    +0.125 A 
ENDROOT
BRANCH   1   7
ATOM      7  C   LIG    1        0.980  -0.610  -0.149  0.00  0.00    +0.340 C 
ATOM      8  O   LIG    1        1.340  -1.751  -0.517  0.00  0.00    -0.245 OA
BRANCH   7  10
ATOM      9  C   LIG    1        3.339   0.016   0.163  0.00  0.00    +0.280 C 
ATOM     10  O   LIG    1        1.951   0.310   0.202  0.00  0.00    -0.464 OA
ENDBRANCH   7  10
ENDBRANCH   1   7
TORSDOF 2
