REMARK  Name = molecules/YNDIAUKFXKEXSV-CRYLGTRXSA-N.pdb
REMARK                            x       y       z     vdW  Elec       q    Type
REMARK                         _______ _______ _______ _____ _____    ______ ____
ROOT
ATOM      1  C   LIG    1        1.702  -0.291   0.062  0.00  0.00    -0.007 A 
ATOM      2  C   LIG    1        0.913  -0.356   1.192  0.00  0.00    +0.122 A 
ATOM      3  N   LIG    1       -0.428  -0.547   1.145  0.00  0.00    -0.221 NA
ATOM      4  C   LIG    1       -1.075  -0.686  -0.026  0.00  0.00    +0.215 A 
ATOM      5  C   LIG    1       -0.331  -0.628  -1.183  0.00  0.00    +0.068 A 
ATOM      6  C   LIG    1        1.056  -0.431  -1.141  0.00  0.00    +0.014 A 
ENDROOT
BRANCH   1   7
ATOM      7  C   LIG    1        3.131  -0.083   0.226  0.00  0.00    +0.010 C 
ATOM      8  C   LIG    1        4.004   0.000  -0.753  0.00  0.00    +0.008 C 
BRANCH   8   9
ATOM      9  C   LIG    1        5.439   0.209  -0.593  0.00  0.00    -0.025 A 
ATOM     10  C   LIG    1        6.062   0.346   0.621  0.00  0.00    +0.010 A 
ATOM     11  C   LIG    1        7.423   0.543   0.754  0.00  0.00    +0.023 A 
ATOM     12  C   LIG    1        8.191   0.606  -0.372  0.00  0.00    +0.027 A 
ATOM     13  C   LIG    1        7.605   0.472  -1.630  0.00  0.00    +0.023 A 
ATOM     14  C   LIG    1        6.243   0.277  -1.720  0.00  0.00    +0.010 A 
BRANCH  12  15
ATOM     15  N   LIG    1        9.590   0.809  -0.229  0.00  0.00    -0.347 N 
ATOM     16  C   LIG    1       10.197   0.947   1.064  0.00  0.00    +0.125 C 
ATOM     17  H   LIG    1       10.176   0.857  -1.085  0.00  0.00    +0.146 HD
ENDBRANCH  12  15
ENDBRANCH   8   9
ENDBRANCH   1   7
BRANCH   4  18
ATOM     18  O   LIG    1       -2.428  -0.879  -0.085  0.00  0.00    -0.474 OA
BRANCH  18  19
ATOM     19  C   LIG    1       -3.288  -0.956   1.010  0.00  0.00    +0.258 C 
BRANCH  19  20
ATOM     20  C   LIG    1       -4.702  -1.177   0.483  0.00  0.00    +0.201 C 
BRANCH  20  21
ATOM     21  O   LIG    1       -5.609  -1.263   1.504  0.00  0.00    -0.374 OA
BRANCH  21  22
ATOM     22  C   LIG    1       -6.909  -1.487   1.118  0.00  0.00    +0.188 C 
BRANCH  22  23
ATOM     23  C   LIG    1       -7.391  -0.359   0.241  0.00  0.00    +0.188 C 
BRANCH  23  24
ATOM     24  O   LIG    1       -8.727  -0.576  -0.156  0.00  0.00    -0.375 OA
BRANCH  24  25
ATOM     25  C   LIG    1       -9.128   0.448  -0.972  0.00  0.00    +0.193 C 
BRANCH  25  26
ATOM     26  C   LIG    1       -9.071   1.807  -0.329  0.00  0.00    +0.241 C 
ATOM     27  F   LIG    1       -9.528   2.720  -1.297  0.00  0.00    -0.247 F 
ENDBRANCH  25  26
ENDBRANCH  24  25
ENDBRANCH  23  24
ENDBRANCH  22  23
ENDBRANCH  21  22
ENDBRANCH  20  21
ENDBRANCH  19  20
ENDBRANCH  18  19
ENDBRANCH   4  18
TORSDOF 12
