REMARK  Name = molecules/YNJBWRMUSHSURL-UHFFFAOYSA-N.pdb
REMARK                            x       y       z     vdW  Elec       q    Type
REMARK                         _______ _______ _______ _____ _____    ______ ____
ROOT
ATOM      1  C   LIG    1       -0.673  -0.265   0.131  0.00  0.00    +0.357 C 
ATOM      2  O   LIG    1       -1.342  -0.625   1.134  0.00  0.00    -0.246 OA
ENDROOT
BRANCH   1   3
ATOM      3  C   LIG    1        0.787  -0.035   0.239  0.00  0.00    +0.287 C 
ATOM      4 CL   LIG    1        1.308  -0.346   1.893  0.00  0.00    -0.072 Cl
ATOM      5 CL   LIG    1        1.215   1.637  -0.171  0.00  0.00    -0.072 Cl
ATOM      6 CL   LIG    1        1.709  -1.104  -0.846  0.00  0.00    -0.072 Cl
ENDBRANCH   1   3
BRANCH   1   7
ATOM      7  O   LIG    1       -1.361  -0.098  -1.061  0.00  0.00    -0.478 OA
ATOM      8  H   LIG    1       -1.643   0.838  -1.319  0.00  0.00    +0.295 HD
ENDBRANCH   1   7
TORSDOF 2
