REMARK  Name = molecules/YOZBGTLTNGAVFU-UHFFFAOYSA-N.pdb
REMARK                            x       y       z     vdW  Elec       q    Type
REMARK                         _______ _______ _______ _____ _____    ______ ____
ROOT
ATOM      1  C   UNK A  1        2.503  -0.960   0.590  0.00  0.00    +0.129 A 
ATOM      2  C   UNK A  1        2.116  -0.625   1.871  0.00  0.00    +0.047 A 
ATOM      3  C   UNK A  1        0.785  -0.431   2.160  0.00  0.00    +0.016 A 
ATOM      4  C   UNK A  1       -0.129  -0.583   1.136  0.00  0.00    +0.028 A 
ATOM      5  C   UNK A  1       -1.492  -0.386   1.423  0.00  0.00    +0.155 A 
ATOM      6  C   UNK A  1       -2.381  -0.542   0.390  0.00  0.00    +0.167 A 
ATOM      7  N   UNK A  1       -1.956  -0.878  -0.877  0.00  0.00    -0.243 NA
ATOM      8  C   UNK A  0       -0.674  -1.067  -1.168  0.00  0.00    +0.047 A 
ATOM      9  C   UNK A  0       -0.218  -1.430  -2.541  0.00  0.00    +0.066 C 
ATOM     10  C   UNK A  1        0.229  -0.914  -0.142  0.00  0.00    +0.010 A 
ATOM     11  C   UNK A  1        1.568  -1.103  -0.406  0.00  0.00    +0.056 A 
ENDROOT
BRANCH   6  12
ATOM     12  C   UNK A  1       -3.800  -0.353   0.623  0.00  0.00    +0.266 C 
ATOM     13  O   UNK A  1       -4.249  -0.052   1.733  0.00  0.00    -0.268 OA
ATOM     14  N   UNK A  1       -4.737  -0.510  -0.435  0.00  0.00    -0.299 N 
ATOM     15  H   UNK A  1       -4.361  -0.764  -1.372  0.00  0.00    +0.150 HD
BRANCH  14  16
ATOM     16  C   UNK A  1       -6.146  -0.338  -0.271  0.00  0.00    +0.225 C 
BRANCH  16  17
ATOM     17  C   UNK A  1       -6.478   1.045   0.193  0.00  0.00    +0.322 C 
ATOM     18  O   UNK A  1       -5.585   1.902   0.395  0.00  0.00    -0.249 OA
BRANCH  17  19
ATOM     19  O   UNK A  1       -7.793   1.369   0.399  0.00  0.00    -0.480 OA
ATOM     20  H   UNK A  1       -8.148   2.288   0.186  0.00  0.00    +0.295 HD
ENDBRANCH  17  19
ENDBRANCH  16  17
ENDBRANCH  14  16
ENDBRANCH   6  12
BRANCH   5  21
ATOM     21  O   UNK A  1       -1.801  -0.056   2.715  0.00  0.00    -0.504 OA
ATOM     22  H   UNK A  1       -2.640   0.131   3.175  0.00  0.00    +0.292 HD
ENDBRANCH   5  21
BRANCH   1  23
ATOM     23  O   UNK A  1        3.849  -1.157   0.293  0.00  0.00    -0.456 OA
BRANCH  23  25
ATOM     24  C   UNK A  1        4.021   1.181  -0.238  0.00  0.00    +0.046 A 
ATOM     25  C   UNK A  1        4.587  -0.069  -0.119  0.00  0.00    +0.128 A 
ATOM     26  C   UNK A  1        5.931  -0.152  -0.439  0.00  0.00    +0.046 A 
ATOM     27  C   UNK A  1        6.671   0.938  -0.853  0.00  0.00    +0.004 A 
ATOM     28  C   UNK A  1        6.057   2.165  -0.955  0.00  0.00    +0.000 A 
ATOM     29  C   UNK A  1        4.717   2.291  -0.645  0.00  0.00    +0.004 A 
ENDBRANCH  23  25
ENDBRANCH   1  23
TORSDOF 7
