REMARK  Name = molecules/YPBATNHYBCGSSN-VWPFQQQWSA-N.pdb
REMARK                            x       y       z     vdW  Elec       q    Type
REMARK                         _______ _______ _______ _____ _____    ______ ____
ROOT
ATOM      1  CA  LIG    1       -0.586  -1.099  -0.436  0.00  0.00    +0.191 C 
ENDROOT
BRANCH   1   2
ATOM      2  N   LIG    1       -1.974  -0.763  -0.094  0.00  0.00    -0.284 N 
ATOM      3  H   LIG    1       -2.298  -0.837   0.876  0.00  0.00    +0.151 HD
ATOM      4  C   LIG    1       -2.845  -0.339  -1.119  0.00  0.00    +0.311 C 
ATOM      5  N   LIG    1       -4.186   0.014  -0.832  0.00  0.00    -0.207 N 
ATOM      6  C   LIG    1       -4.859   0.043   0.415  0.00  0.00    +0.331 C 
ATOM      7  O   LIG    1       -4.593  -0.738   1.387  0.00  0.00    -0.250 OA
ATOM      8  N   LIG    1       -5.856   1.075   0.382  0.00  0.00    -0.158 N 
ATOM      9  C   LIG    1       -6.001   1.442  -1.000  0.00  0.00    +0.155 C 
ATOM     10  C   LIG    1       -5.191   0.461  -1.794  0.00  0.00    +0.140 C 
ATOM     11  O   LIG    1       -2.452  -0.260  -2.317  0.00  0.00    -0.252 OA
BRANCH   8  12
ATOM     12  S   LIG    1       -6.680   1.738   1.721  0.00  0.00    +0.046 S 
ATOM     13  O   LIG    1       -5.732   2.008   2.861  0.00  0.00    -0.155 OA
ATOM     14  C   LIG    1       -7.948   0.603   2.237  0.00  0.00    +0.219 C 
ATOM     15  O   LIG    1       -7.306   3.052   1.269  0.00  0.00    -0.155 OA
ENDBRANCH   8  12
ENDBRANCH   1   2
BRANCH   1  16
ATOM     16  C   LIG    1       -0.411  -2.520  -0.039  0.00  0.00    -0.018 A 
ATOM     17  C   LIG    1       -0.800  -3.002   1.183  0.00  0.00    +0.006 A 
ATOM     18  C   LIG    1       -0.644  -4.314   1.550  0.00  0.00    +0.000 A 
ATOM     19  C   LIG    1       -0.060  -5.192   0.629  0.00  0.00    +0.000 A 
ATOM     20  C   LIG    1        0.327  -4.707  -0.596  0.00  0.00    +0.000 A 
ATOM     21  C   LIG    1        0.162  -3.382  -0.946  0.00  0.00    +0.006 A 
ENDBRANCH   1  16
BRANCH   1  23
ATOM     22  N   LIG    1        1.615   0.164  -0.009  0.00  0.00    -0.300 N 
ATOM     23  C   LIG    1        0.280  -0.205   0.377  0.00  0.00    +0.239 C 
ATOM     24  O   LIG    1       -0.197   0.247   1.449  0.00  0.00    -0.273 OA
ATOM     25  H   LIG    1        2.030  -0.182  -0.887  0.00  0.00    +0.150 HD
BRANCH  22  26
ATOM     26  CA  LIG    1        2.341   1.026   0.868  0.00  0.00    +0.190 C 
ATOM     27  C   LIG    1        3.802   1.020   0.881  0.00  0.00    +0.165 C 
ATOM     28  S   LIG    1        4.684  -0.408   0.184  0.00  0.00    -0.127 S 
ATOM     29  C   LIG    1        5.707   0.643  -0.903  0.00  0.00    +0.042 C 
ATOM     30  C   LIG    1        6.903   1.055  -0.061  0.00  0.00    +0.025 C 
ATOM     31  CA  LIG    1        4.769   1.728  -1.229  0.00  0.00    +0.201 C 
ATOM     32  C   LIG    1        6.148  -0.114  -2.138  0.00  0.00    +0.025 C 
ATOM     33  N   LIG    1        3.734   1.893  -0.302  0.00  0.00    -0.271 N 
ATOM     34  C   LIG    1        2.562   2.403   0.272  0.00  0.00    +0.240 C 
ATOM     35  O   LIG    1        1.923   3.484   0.320  0.00  0.00    -0.273 OA
BRANCH  31  36
ATOM     36  C   LIG    1        5.478   3.058  -1.385  0.00  0.00    +0.327 C 
ATOM     37  O   LIG    1        6.460   3.213  -2.148  0.00  0.00    -0.249 OA
BRANCH  36  38
ATOM     38  OXT LIG    1        5.033   4.148  -0.661  0.00  0.00    -0.479 OA
ATOM     39  HXT LIG    1        4.627   4.007   0.275  0.00  0.00    +0.295 HD
ENDBRANCH  36  38
ENDBRANCH  31  36
ENDBRANCH  22  26
ENDBRANCH   1  23
TORSDOF 7
