REMARK  Name = molecules/YPIQVCUJEKAZCP-UHFFFAOYSA-N.pdb
REMARK                            x       y       z     vdW  Elec       q    Type
REMARK                         _______ _______ _______ _____ _____    ______ ____
ROOT
ATOM      1  C   LIG    1       -0.336   1.520  -0.308  0.00  0.00    +0.163 C 
ATOM      2  C   LIG    1       -0.630   2.791  -0.427  0.00  0.00    +0.070 C 
ATOM      3  S   LIG    1       -1.923   3.718   0.438  0.00  0.00    -0.089 S 
ATOM      4  C   LIG    1       -1.293   5.367   0.342  0.00  0.00    +0.053 C 
ATOM      5  C   LIG    1       -0.342   5.539  -0.546  0.00  0.00    +0.053 C 
ATOM      6  S   LIG    1        0.090   4.067  -1.446  0.00  0.00    -0.089 S 
ENDROOT
BRANCH   1   7
ATOM      7  C   LIG    1       -1.080   0.690   0.599  0.00  0.00    +0.348 C 
ATOM      8  O   LIG    1       -2.012   1.196   1.272  0.00  0.00    -0.245 OA
BRANCH   7   9
ATOM      9  O   LIG    1       -0.849  -0.663   0.800  0.00  0.00    -0.458 OA
BRANCH   9  10
ATOM     10  C   LIG    1       -1.648  -1.409   1.730  0.00  0.00    +0.171 C 
ATOM     11  C   LIG    1       -0.793  -2.071   2.782  0.00  0.00    +0.052 C 
ATOM     12  C   LIG    1       -2.385  -2.506   0.993  0.00  0.00    +0.052 C 
ENDBRANCH   9  10
ENDBRANCH   7   9
ENDBRANCH   1   7
BRANCH   1  13
ATOM     13  C   LIG    1        0.737   0.962  -1.090  0.00  0.00    +0.348 C 
ATOM     14  O   LIG    1        1.435   1.620  -1.904  0.00  0.00    -0.245 OA
BRANCH  13  15
ATOM     15  O   LIG    1        1.023  -0.379  -0.942  0.00  0.00    -0.458 OA
BRANCH  15  16
ATOM     16  C   LIG    1        2.034  -1.065  -1.630  0.00  0.00    +0.171 C 
ATOM     17  C   LIG    1        3.077  -1.471  -0.588  0.00  0.00    +0.052 C 
ATOM     18  C   LIG    1        1.562  -2.246  -2.398  0.00  0.00    +0.052 C 
ENDBRANCH  15  16
ENDBRANCH  13  15
ENDBRANCH   1  13
TORSDOF 6
