REMARK  Name = molecules/YPVUHOBTCWJYNQ-SLHNCBLASA-N.pdb
REMARK                            x       y       z     vdW  Elec       q    Type
REMARK                         _______ _______ _______ _____ _____    ______ ____
ROOT
ATOM      1  C   LIG    1       -1.600   2.017   0.625  0.00  0.00    +0.014 C 
ATOM      2  C   LIG    1       -1.777   0.541   0.385  0.00  0.00    +0.003 C 
ATOM      3  C   LIG    1       -1.145  -0.225   1.470  0.00  0.00    +0.010 C 
ATOM      4  C   LIG    1       -0.062  -1.161   1.110  0.00  0.00    +0.005 C 
ATOM      5  C   LIG    1        0.819  -0.797  -0.013  0.00  0.00    -0.000 C 
ATOM      6  C   LIG    1        2.228  -0.537   0.324  0.00  0.00    -0.013 C 
ATOM      7  C   LIG    1        2.833  -1.250   1.482  0.00  0.00    +0.016 C 
ATOM      8  C   LIG    1        4.280  -1.517   1.123  0.00  0.00    +0.075 C 
ATOM      9  C   LIG    1        4.964  -0.296   0.648  0.00  0.00    +0.134 C 
ATOM     10  O   LIG    1        6.171  -0.225   0.659  0.00  0.00    -0.297 OA
ATOM     11  C   LIG    1        4.172   0.859   0.150  0.00  0.00    +0.082 C 
ATOM     12  C   LIG    1        2.905   0.327  -0.425  0.00  0.00    -0.010 C 
ATOM     13  C   LIG    1        2.494   0.784  -1.759  0.00  0.00    +0.009 C 
ATOM     14  C   LIG    1        1.071   0.395  -2.103  0.00  0.00    +0.005 C 
ATOM     15  C   LIG    1        0.277   0.377  -0.849  0.00  0.00    -0.004 C 
ATOM     16  C   LIG    1       -3.210   0.273   0.104  0.00  0.00    +0.089 C 
ATOM     17  C   LIG    1       -3.368   0.747  -1.347  0.00  0.00    +0.040 C 
ATOM     18  C   LIG    1       -1.968   0.848  -1.919  0.00  0.00    +0.007 C 
ATOM     19  C   LIG    1       -1.159   0.114  -0.952  0.00  0.00    +0.001 C 
ENDROOT
BRANCH  16  20
ATOM     20  O   LIG    1       -4.053   1.004   0.925  0.00  0.00    -0.384 OA
ATOM     21  H   LIG    1       -4.664   1.600   0.400  0.00  0.00    +0.211 HD
ENDBRANCH  16  20
BRANCH  16  22
ATOM     22  C   LIG    1       -3.558  -1.178   0.210  0.00  0.00    +0.000 C 
ATOM     23  C   LIG    1       -4.412  -1.607   1.124  0.00  0.00    +0.007 C 
ENDBRANCH  16  22
TORSDOF 2
