REMARK  Name = molecules/YPZRWBKMTBYPTK-BJDJZHNGSA-N.pdb
REMARK                            x       y       z     vdW  Elec       q    Type
REMARK                         _______ _______ _______ _____ _____    ______ ____
ROOT
ATOM      1  SG  GLN A  1       -0.784  -2.742   0.285  0.00  0.00    -0.091 S 
ENDROOT
BRANCH   1   2
ATOM      2  SG  GLN A  1       -1.099  -1.298  -1.163  0.00  0.00    -0.091 S 
BRANCH   2   3
ATOM      3  CB  GLN A  1        0.125  -0.010  -1.228  0.00  0.00    +0.112 C 
BRANCH   3   4
ATOM      4  CA  GLN A  1        1.503  -0.446  -1.658  0.00  0.00    +0.169 C 
BRANCH   4   5
ATOM      5  N   GLN A  1        2.319   0.775  -1.634  0.00  0.00    -0.303 N 
ATOM      6  CD  GLN A  1        3.462   0.921  -0.825  0.00  0.00    +0.214 C 
ATOM      7  OE1 GLN A  1        3.797  -0.046  -0.086  0.00  0.00    -0.276 OA
ATOM      8  H   GLN A  1        2.021   1.571  -2.257  0.00  0.00    +0.149 HD
BRANCH   6   9
ATOM      9  CG  GLN A  1        4.250   2.181  -0.844  0.00  0.00    +0.098 C 
BRANCH   9  10
ATOM     10  CB  GLN A  1        5.418   2.026   0.103  0.00  0.00    +0.039 C 
BRANCH  10  11
ATOM     11  CA  GLN A  1        6.287   3.252   0.160  0.00  0.00    +0.161 C 
BRANCH  11  12
ATOM     12  N   GLN A  1        5.622   4.367   0.754  0.00  0.00    -0.318 NA
ATOM     13  H1  GLN A  1        4.622   4.181   0.873  0.00  0.00    +0.119 HD
ATOM     14  H2  GLN A  1        5.868   5.282   0.336  0.00  0.00    +0.119 HD
ENDBRANCH  11  12
BRANCH  11  15
ATOM     15  C   GLN A  1        6.867   3.597  -1.169  0.00  0.00    +0.322 C 
ATOM     16  O   GLN A  1        7.489   2.771  -1.863  0.00  0.00    -0.249 OA
BRANCH  15  17
ATOM     17  OXT GLN A  1        6.718   4.891  -1.669  0.00  0.00    -0.480 OA
ATOM     18  HXT GLN A  1        5.794   5.335  -1.701  0.00  0.00    +0.295 HD
ENDBRANCH  15  17
ENDBRANCH  11  15
ENDBRANCH  10  11
ENDBRANCH   9  10
ENDBRANCH   6   9
ENDBRANCH   4   5
BRANCH   4  19
ATOM     19  C   GLN A  1        1.563  -0.997  -3.021  0.00  0.00    +0.235 C 
ATOM     20  N   GLY A  2        0.909  -2.203  -3.335  0.00  0.00    -0.303 N 
ATOM     21  H   GLY A  2        0.387  -2.711  -2.598  0.00  0.00    +0.149 HD
ATOM     22  O   GLN A  1        2.199  -0.395  -3.914  0.00  0.00    -0.274 OA
BRANCH  20  23
ATOM     23  CA  GLY A  2        0.948  -2.765  -4.657  0.00  0.00    +0.224 C 
BRANCH  23  24
ATOM     24  C   GLY A  2        0.183  -4.032  -4.724  0.00  0.00    +0.322 C 
ATOM     25  OXT GLY A  2       -0.416  -4.526  -3.719  0.00  0.00    -0.249 OA
BRANCH  24  26
ATOM     26  O   GLY A  2        0.106  -4.725  -5.929  0.00  0.00    -0.480 OA
ATOM     27  H   GLY A  2        0.885  -5.350  -6.180  0.00  0.00    +0.295 HD
ENDBRANCH  24  26
ENDBRANCH  23  24
ENDBRANCH  20  23
ENDBRANCH   4  19
ENDBRANCH   3   4
ENDBRANCH   2   3
ENDBRANCH   1   2
BRANCH   1  28
ATOM     28  CB  GLN A  1       -1.474  -2.498   1.888  0.00  0.00    +0.112 C 
BRANCH  28  29
ATOM     29  CA  GLN A  1       -2.961  -2.526   2.032  0.00  0.00    +0.169 C 
BRANCH  29  32
ATOM     30  CD  GLN A  1       -3.353  -0.191   1.111  0.00  0.00    +0.214 C 
ATOM     31  OE1 GLN A  1       -2.224   0.221   1.455  0.00  0.00    -0.276 OA
ATOM     32  N   GLN A  1       -3.721  -1.521   1.378  0.00  0.00    -0.303 N 
ATOM     33  H   GLN A  1       -4.707  -1.788   1.034  0.00  0.00    +0.149 HD
BRANCH  30  34
ATOM     34  CG  GLN A  1       -4.304   0.732   0.432  0.00  0.00    +0.098 C 
BRANCH  34  35
ATOM     35  CB  GLN A  1       -3.830   2.128   0.310  0.00  0.00    +0.039 C 
BRANCH  35  36
ATOM     36  CA  GLN A  1       -2.627   2.394  -0.511  0.00  0.00    +0.161 C 
BRANCH  36  37
ATOM     37  N   GLN A  1       -2.343   3.823  -0.437  0.00  0.00    -0.318 NA
ATOM     38  H1  GLN A  1       -2.701   4.255   0.443  0.00  0.00    +0.119 HD
ATOM     39  H2  GLN A  1       -2.740   4.336  -1.263  0.00  0.00    +0.119 HD
ENDBRANCH  36  37
BRANCH  36  40
ATOM     40  C   GLN A  1       -2.862   2.019  -1.910  0.00  0.00    +0.322 C 
ATOM     41  OXT GLN A  1       -3.206   0.892  -2.310  0.00  0.00    -0.249 OA
BRANCH  40  42
ATOM     42  O   GLN A  1       -2.685   3.021  -2.892  0.00  0.00    -0.480 OA
ATOM     43  H   GLN A  1       -3.095   2.914  -3.818  0.00  0.00    +0.295 HD
ENDBRANCH  40  42
ENDBRANCH  36  40
ENDBRANCH  35  36
ENDBRANCH  34  35
ENDBRANCH  30  34
ENDBRANCH  29  32
BRANCH  29  44
ATOM     44  C   GLN A  1       -3.302  -2.687   3.453  0.00  0.00    +0.235 C 
ATOM     45  N   GLY A  2       -2.741  -3.694   4.245  0.00  0.00    -0.303 N 
ATOM     46  H   GLY A  2       -2.055  -4.388   3.829  0.00  0.00    +0.149 HD
ATOM     47  O   GLN A  1       -4.126  -1.890   3.961  0.00  0.00    -0.274 OA
BRANCH  45  48
ATOM     48  CA  GLY A  2       -3.112  -3.802   5.646  0.00  0.00    +0.224 C 
BRANCH  48  49
ATOM     49  C   GLY A  2       -2.735  -2.553   6.330  0.00  0.00    +0.322 C 
ATOM     50  O   GLY A  2       -2.178  -1.638   5.682  0.00  0.00    -0.249 OA
BRANCH  49  51
ATOM     51  OXT GLY A  2       -2.975  -2.349   7.682  0.00  0.00    -0.480 OA
ATOM     52  HXT GLY A  2       -3.854  -2.034   8.056  0.00  0.00    +0.295 HD
ENDBRANCH  49  51
ENDBRANCH  48  49
ENDBRANCH  45  48
ENDBRANCH  29  44
ENDBRANCH  28  29
ENDBRANCH   1  28
TORSDOF 27
