REMARK  Name = molecules/YQEZLKZALYSWHR-ZDUSSCGKSA-N.pdb
REMARK                            x       y       z     vdW  Elec       q    Type
REMARK                         _______ _______ _______ _____ _____    ______ ____
ROOT
ATOM      1  C   LIG    1       -0.109   0.263   0.428  0.00  0.00    +0.104 C 
ATOM      2  C   LIG    1       -1.042  -0.903   0.486  0.00  0.00    +0.158 C 
ATOM      3  O   LIG    1       -1.199  -1.550   1.483  0.00  0.00    -0.295 OA
ATOM      4  C   LIG    1       -1.811  -1.286  -0.725  0.00  0.00    +0.076 C 
ATOM      5  C   LIG    1       -2.800  -0.180  -1.103  0.00  0.00    +0.008 C 
ATOM      6  C   LIG    1       -2.294   1.057  -0.336  0.00  0.00    +0.003 C 
ATOM      7  C   LIG    1       -0.792   1.165  -0.581  0.00  0.00    +0.035 C 
ENDROOT
BRANCH   1   8
ATOM      8  C   LIG    1        1.228  -0.192  -0.110  0.00  0.00    -0.002 A 
ATOM      9  C   LIG    1        1.995  -1.139   0.529  0.00  0.00    +0.046 A 
ATOM     10 CL   LIG    1        1.493  -1.923   2.008  0.00  0.00    -0.083 Cl
ATOM     11  C   LIG    1        3.237  -1.543   0.037  0.00  0.00    +0.020 A 
ATOM     12  C   LIG    1        3.731  -0.989  -1.125  0.00  0.00    +0.001 A 
ATOM     13  C   LIG    1        2.969  -0.039  -1.771  0.00  0.00    +0.000 A 
ATOM     14  C   LIG    1        1.723   0.360  -1.269  0.00  0.00    +0.007 A 
ENDBRANCH   1   8
BRANCH   1  15
ATOM     15  N   LIG    1        0.125   0.816   1.679  0.00  0.00    -0.304 NA
ATOM     16  C   LIG    1       -0.819   1.394   2.495  0.00  0.00    +0.102 C 
ATOM     17  H   LIG    1        0.983   0.524   2.142  0.00  0.00    +0.123 HD
ENDBRANCH   1  15
TORSDOF 2
