REMARK  Name = molecules/YQEZLKZALYSWHR-CYBMUJFWSA-N.pdb
REMARK                            x       y       z     vdW  Elec       q    Type
REMARK                         _______ _______ _______ _____ _____    ______ ____
ROOT
ATOM      1  C   LIG    1       -0.139   0.471  -0.355  0.00  0.00    +0.104 C 
ATOM      2  C   LIG    1       -1.015   0.463   0.912  0.00  0.00    +0.035 C 
ATOM      3  C   LIG    1       -2.429   0.170   0.480  0.00  0.00    +0.003 C 
ATOM      4  C   LIG    1       -2.577  -1.335   0.238  0.00  0.00    +0.008 C 
ATOM      5  C   LIG    1       -1.310  -1.760  -0.483  0.00  0.00    +0.076 C 
ATOM      6  C   LIG    1       -0.743  -0.584  -1.205  0.00  0.00    +0.158 C 
ATOM      7  O   LIG    1       -0.818  -0.579  -2.398  0.00  0.00    -0.295 OA
ENDROOT
BRANCH   1   8
ATOM      8  C   LIG    1        1.222  -0.021   0.048  0.00  0.00    -0.002 A 
ATOM      9  C   LIG    1        2.006   0.601   0.986  0.00  0.00    +0.046 A 
ATOM     10 CL   LIG    1        1.449   2.007   1.823  0.00  0.00    -0.083 Cl
ATOM     11  C   LIG    1        3.270   0.128   1.321  0.00  0.00    +0.020 A 
ATOM     12  C   LIG    1        3.779  -0.990   0.717  0.00  0.00    +0.001 A 
ATOM     13  C   LIG    1        3.010  -1.648  -0.240  0.00  0.00    +0.000 A 
ATOM     14  C   LIG    1        1.764  -1.149  -0.546  0.00  0.00    +0.007 A 
ENDBRANCH   1   8
BRANCH   1  15
ATOM     15  N   LIG    1       -0.049   1.739  -0.888  0.00  0.00    -0.304 NA
ATOM     16  H   LIG    1        0.729   2.296  -0.533  0.00  0.00    +0.123 HD
ATOM     17  C   LIG    1       -1.130   2.527  -1.256  0.00  0.00    +0.102 C 
ENDBRANCH   1  15
TORSDOF 2
