REMARK  Name = molecules/YQGDEPYYFWUPGO-VKHMYHEASA-N.pdb
REMARK                            x       y       z     vdW  Elec       q    Type
REMARK                         _______ _______ _______ _____ _____    ______ ____
ROOT
ATOM      1  C   LIG    1       -0.241  -0.768   0.120  0.00  0.00    +0.139 C 
ENDROOT
BRANCH   1   2
ATOM      2  O   LIG    1       -0.027  -1.402  -1.079  0.00  0.00    -0.390 OA
ATOM      3  H   LIG    1        0.703  -2.071  -1.068  0.00  0.00    +0.210 HD
ENDBRANCH   1   2
BRANCH   1   4
ATOM      4  C   LIG    1       -1.678  -0.280   0.178  0.00  0.00    +0.109 C 
BRANCH   4   5
ATOM      5  N   LIG    1       -1.952   0.646  -0.892  0.00  0.00    -0.328 NA
ATOM      6  H   LIG    1       -2.453   1.504  -0.548  0.00  0.00    +0.118 HD
ATOM      7  H   LIG    1       -2.541   0.246  -1.653  0.00  0.00    +0.118 HD
ENDBRANCH   4   5
ENDBRANCH   1   4
BRANCH   1   8
ATOM      8  C   LIG    1        0.640   0.456   0.186  0.00  0.00    +0.153 C 
BRANCH   8   9
ATOM      9  C   LIG    1        2.087   0.087   0.136  0.00  0.00    +0.307 C 
ATOM     10  O   LIG    1        2.501  -1.080   0.051  0.00  0.00    -0.251 OA
BRANCH   9  11
ATOM     11  O   LIG    1        2.989   1.152   0.191  0.00  0.00    -0.481 OA
ATOM     12  H   LIG    1        3.169   1.656   1.034  0.00  0.00    +0.295 HD
ENDBRANCH   9  11
ENDBRANCH   8   9
ENDBRANCH   1   8
TORSDOF 6
