REMARK  Name = molecules/YQNFBOJPTAXAKV-OMCISZLKSA-N.pdb
REMARK                            x       y       z     vdW  Elec       q    Type
REMARK                         _______ _______ _______ _____ _____    ______ ____
ROOT
ATOM      1  C   LIG    1        1.920  -0.558   0.492  0.00  0.00    -0.019 A 
ATOM      2  C   LIG    1        0.708   0.047   0.267  0.00  0.00    +0.044 A 
ATOM      3  I   LIG    1        0.327   2.067   0.812  0.00  0.00    -0.041 I 
ATOM      4  C   LIG    1       -0.381  -0.636  -0.235  0.00  0.00    +0.092 A 
ATOM      5  C   LIG    1       -0.246  -1.988  -0.521  0.00  0.00    +0.041 A 
ATOM      6  C   LIG    1        0.983  -2.583  -0.285  0.00  0.00    +0.031 A 
ATOM      7  I   LIG    1       -1.861  -3.065  -1.289  0.00  0.00    -0.042 I 
ATOM      8  C   LIG    1        2.079  -1.925   0.212  0.00  0.00    +0.019 A 
ATOM      9  I   LIG    1        3.925  -2.894   0.564  0.00  0.00    -0.043 I 
ENDROOT
BRANCH   4  10
ATOM     10  N   LIG    1       -1.655   0.000  -0.444  0.00  0.00    -0.238 NA
ATOM     11  C   LIG    1       -2.654  -0.314   0.325  0.00  0.00    +0.184 C 
BRANCH  11  12
ATOM     12  N   LIG    1       -3.944   0.244   0.217  0.00  0.00    -0.327 N 
ATOM     13  C   LIG    1       -4.602   0.901   1.345  0.00  0.00    +0.129 C 
ATOM     14  C   LIG    1       -4.710   0.205  -1.014  0.00  0.00    +0.129 C 
ENDBRANCH  11  12
ENDBRANCH   4  10
BRANCH   1  15
ATOM     15  C   LIG    1        3.091   0.170   0.936  0.00  0.00    +0.048 C 
BRANCH  15  16
ATOM     16  C   LIG    1        4.103   0.617  -0.019  0.00  0.00    +0.125 C 
BRANCH  16  17
ATOM     17  C   LIG    1        3.836   1.476  -1.136  0.00  0.00    +0.305 C 
ATOM     18  O   LIG    1        2.769   1.905  -1.557  0.00  0.00    -0.251 OA
BRANCH  17  19
ATOM     19  O   LIG    1        4.988   1.902  -1.879  0.00  0.00    -0.481 OA
ATOM     20  H   LIG    1        5.892   1.523  -1.734  0.00  0.00    +0.295 HD
ENDBRANCH  17  19
ENDBRANCH  16  17
ENDBRANCH  15  16
ENDBRANCH   1  15
TORSDOF 6
