REMARK  Name = molecules/YQNQNVDNTFHQSW-UHFFFAOYSA-N.pdb
REMARK                            x       y       z     vdW  Elec       q    Type
REMARK                         _______ _______ _______ _____ _____    ______ ____
ROOT
ATOM      1  C   LIG    1        0.467  -0.797  -0.261  0.00  0.00    +0.253 C 
ATOM      2  O   LIG    1        1.607  -1.374  -0.076  0.00  0.00    -0.270 OA
ATOM      3  N   LIG    1        0.544   0.605  -0.368  0.00  0.00    -0.261 N 
ATOM      4  H   LIG    1       -0.261   1.228  -0.519  0.00  0.00    +0.157 HD
ENDROOT
BRANCH   1   5
ATOM      5  C   LIG    1       -0.685  -1.644  -0.327  0.00  0.00    +0.079 A 
ATOM      6  C   LIG    1       -0.463  -3.039  -0.248  0.00  0.00    +0.017 A 
ATOM      7  C   LIG    1       -1.524  -3.909  -0.342  0.00  0.00    +0.001 A 
ATOM      8  C   LIG    1       -2.797  -3.441  -0.512  0.00  0.00    +0.004 A 
ATOM      9  C   LIG    1       -2.999  -2.088  -0.586  0.00  0.00    +0.047 A 
ATOM     10  C   LIG    1       -1.951  -1.162  -0.495  0.00  0.00    +0.144 A 
BRANCH  10  11
ATOM     11  O   LIG    1       -2.221   0.182  -0.572  0.00  0.00    -0.425 OA
BRANCH  11  12
ATOM     12  C   LIG    1       -2.828   0.806   0.521  0.00  0.00    +0.309 C 
ATOM     13  O   LIG    1       -3.088   0.081   1.512  0.00  0.00    -0.251 OA
ATOM     14  C   LIG    1       -3.160   2.249   0.536  0.00  0.00    +0.136 C 
ENDBRANCH  11  12
ENDBRANCH  10  11
ENDBRANCH   1   5
BRANCH   3  15
ATOM     15  C   LIG    1        1.872   1.192  -0.255  0.00  0.00    +0.167 A 
ATOM     16  S   LIG    1        3.381   0.442  -0.007  0.00  0.00    -0.028 S 
ATOM     17  C   LIG    1        4.369   1.849  -0.004  0.00  0.00    +0.185 A 
ATOM     18  C   LIG    1        3.426   2.830  -0.201  0.00  0.00    +0.153 A 
ATOM     19  N   LIG    1        2.191   2.473  -0.322  0.00  0.00    -0.231 NA
BRANCH  17  20
ATOM     20  N   LIG    1        5.775   1.986   0.157  0.00  0.00    +0.065 N 
ATOM     21  O   LIG    1        6.543   0.880   0.343  0.00  0.00    -0.126 OA
ATOM     22  O   LIG    1        6.270   3.111   0.124  0.00  0.00    -0.126 OA
ENDBRANCH  17  20
ENDBRANCH   3  15
TORSDOF 5
