REMARK  Name = molecules/YQNWZWMKLDQSAC-UHFFFAOYSA-N.pdb
REMARK                            x       y       z     vdW  Elec       q    Type
REMARK                         _______ _______ _______ _____ _____    ______ ____
ROOT
ATOM      1  C   LIG    1        2.510  -3.037  -1.286  0.00  0.00    +0.002 A 
ATOM      2  C   LIG    1        2.818  -1.826  -0.745  0.00  0.00    +0.024 A 
ATOM      3  C   LIG    1        1.926  -1.082   0.076  0.00  0.00    +0.044 A 
ATOM      4  C   LIG    1        0.696  -1.607   0.336  0.00  0.00    +0.034 A 
ATOM      5  C   LIG    1        0.393  -2.855  -0.228  0.00  0.00    +0.017 A 
ATOM      6  C   LIG    1        1.267  -3.559  -1.018  0.00  0.00    +0.001 A 
ENDROOT
BRANCH   3   7
ATOM      7  N   LIG    1        2.381   0.151   0.570  0.00  0.00    -0.327 N 
ATOM      8  C   LIG    1        1.543   1.263   0.846  0.00  0.00    +0.120 C 
ATOM      9  C   LIG    1        2.426   2.455   1.222  0.00  0.00    +0.100 C 
ATOM     10  N   LIG    1        3.483   2.697   0.296  0.00  0.00    -0.313 NA
ATOM     11  H   LIG    1        4.215   3.286   0.752  0.00  0.00    +0.122 HD
ATOM     12  C   LIG    1        4.163   1.506  -0.176  0.00  0.00    +0.100 C 
ATOM     13  C   LIG    1        3.818   0.387   0.781  0.00  0.00    +0.120 C 
ENDBRANCH   3   7
BRANCH   4  14
ATOM     14  S   LIG    1       -0.496  -0.885   1.384  0.00  0.00    -0.087 S 
BRANCH  14  15
ATOM     15  C   LIG    1       -1.886  -0.104   0.646  0.00  0.00    +0.016 A 
ATOM     16  C   LIG    1       -1.945   1.229   0.363  0.00  0.00    +0.015 A 
ATOM     17  C   LIG    1       -3.067   1.829  -0.235  0.00  0.00    +0.004 A 
ATOM     18  C   LIG    1       -4.161   1.083  -0.562  0.00  0.00    -0.050 A 
ATOM     19  C   LIG    1       -4.122  -0.250  -0.287  0.00  0.00    +0.007 A 
ATOM     20  C   LIG    1       -5.332   1.754  -1.197  0.00  0.00    +0.044 C 
ATOM     21  C   LIG    1       -3.019  -0.852   0.304  0.00  0.00    -0.036 A 
ATOM     22  C   LIG    1       -3.121  -2.317   0.570  0.00  0.00    +0.045 C 
ENDBRANCH  14  15
ENDBRANCH   4  14
TORSDOF 3
