REMARK  Name = molecules/YQVALJGIKVYRNI-UHFFFAOYSA-N.pdb
REMARK                            x       y       z     vdW  Elec       q    Type
REMARK                         _______ _______ _______ _____ _____    ______ ____
ROOT
ATOM      1 AS   LIG    1       -5.646   1.538   1.263  0.00  0.00    +0.000 As
ATOM      2  O   LIG    1       -6.592   0.884   2.443  0.00  0.00    +0.000 OA
ENDROOT
BRANCH   1   3
ATOM      3  O   LIG    1       -4.746   2.953   1.996  0.00  0.00    +0.000 OA
ATOM      4  H   LIG    1       -4.645   3.664   1.312  0.00  0.00    +0.000 HD
ENDBRANCH   1   3
BRANCH   1   5
ATOM      5  O   LIG    1       -6.656   2.133  -0.141  0.00  0.00    +0.000 OA
ATOM      6  H   LIG    1       -6.983   1.391  -0.688  0.00  0.00    +0.000 HD
ENDBRANCH   1   5
TORSDOF 2
REMARK  Name = molecules/YQVALJGIKVYRNI-UHFFFAOYSA-N.pdb
REMARK                            x       y       z     vdW  Elec       q    Type
REMARK                         _______ _______ _______ _____ _____    ______ ____
ROOT
ATOM      1  C   LIG    1       -0.602  -2.737  -1.484  0.00  0.00    +0.120 C 
ENDROOT
BRANCH   1   2
ATOM      2  N   LIG    1       -1.605  -2.763  -0.471  0.00  0.00    -0.342 N 
ATOM      3  H   LIG    1       -1.670  -3.661   0.096  0.00  0.00    +0.146 HD
BRANCH   2   7
ATOM      4  C   LIG    1       -4.363   0.220   0.651  0.00  0.00    -0.018 A 
ATOM      5  C   LIG    1       -4.079  -0.846   1.483  0.00  0.00    +0.010 A 
ATOM      6  C   LIG    1       -3.177  -1.807   1.096  0.00  0.00    +0.023 A 
ATOM      7  C   LIG    1       -2.519  -1.756  -0.127  0.00  0.00    +0.027 A 
ATOM      8  C   LIG    1       -2.834  -0.677  -0.922  0.00  0.00    +0.023 A 
ATOM      9  C   LIG    1       -3.730   0.304  -0.570  0.00  0.00    +0.010 A 
ENDBRANCH   2   7
ENDBRANCH   1   2
BRANCH   1  10
ATOM     10  C   LIG    1        0.684  -2.076  -1.168  0.00  0.00    +0.120 C 
BRANCH  10  11
ATOM     11  N   LIG    1        0.684  -0.701  -0.828  0.00  0.00    -0.342 N 
ATOM     12  H   LIG    1       -0.147  -0.120  -0.807  0.00  0.00    +0.146 HD
BRANCH  11  13
ATOM     13  C   LIG    1        1.943  -0.084  -0.498  0.00  0.00    +0.027 A 
ATOM     14  C   LIG    1        2.012   1.249  -0.159  0.00  0.00    +0.023 A 
ATOM     15  C   LIG    1        3.216   1.836   0.157  0.00  0.00    +0.010 A 
ATOM     16  C   LIG    1        4.404   1.134   0.152  0.00  0.00    -0.018 A 
ATOM     17  C   LIG    1        4.306  -0.198  -0.191  0.00  0.00    +0.010 A 
ATOM     18  C   LIG    1        3.115  -0.802  -0.509  0.00  0.00    +0.023 A 
ENDBRANCH  11  13
ENDBRANCH  10  11
ENDBRANCH   1  10
TORSDOF 5
REMARK  Name = molecules/YQVALJGIKVYRNI-UHFFFAOYSA-N.pdb
REMARK                            x       y       z     vdW  Elec       q    Type
REMARK                         _______ _______ _______ _____ _____    ______ ____
ROOT
ATOM      1 AS   LIG    1        6.099   1.966   0.598  0.00  0.00    +0.000 As
ATOM      2  O   LIG    1        5.952   2.721   2.062  0.00  0.00    +0.000 OA
ENDROOT
BRANCH   1   3
ATOM      3  O   LIG    1        7.375   0.660   0.792  0.00  0.00    +0.000 OA
ATOM      4  H   LIG    1        7.135   0.088   1.578  0.00  0.00    +0.000 HD
ENDBRANCH   1   3
BRANCH   1   5
ATOM      5  O   LIG    1        6.612   3.205  -0.628  0.00  0.00    +0.000 OA
ATOM      6  H   LIG    1        6.385   4.122  -0.311  0.00  0.00    +0.000 HD
ENDBRANCH   1   5
TORSDOF 2
