REMARK  Name = molecules/YRALAIOMGQZKOW-HYAOXDFASA-N.pdb
REMARK                            x       y       z     vdW  Elec       q    Type
REMARK                         _______ _______ _______ _____ _____    ______ ____
ROOT
ATOM      1  C   LIG    1       13.511 -10.512   0.000  0.00  0.00    +0.000 C 
ENDROOT
TORSDOF 0
REMARK  Name = molecules/YRALAIOMGQZKOW-HYAOXDFASA-N.pdb
REMARK                            x       y       z     vdW  Elec       q    Type
REMARK                         _______ _______ _______ _____ _____    ______ ____
ROOT
ATOM      1  C   LIG    1       10.845 -11.434   0.000  0.00  0.00    +0.116 C 
ENDROOT
BRANCH   1   2
ATOM      2  C   LIG    1       10.382 -12.861   0.000  0.00  0.00    +0.237 C 
ATOM      3  O   LIG    1       11.386 -13.975   0.000  0.00  0.00    -0.274 OA
ATOM      4  N   LIG    1        8.915 -13.173   0.000  0.00  0.00    -0.234 NA
ATOM      5  H   LIG    1        7.757 -13.008   0.000  0.00  0.00    +0.173 HD
ENDBRANCH   1   2
BRANCH   1   8
ATOM      6  N   LIG    1       13.199  -9.044   0.000  0.00  0.00    -0.138 NA
ATOM      7  C   LIG    1       11.773  -8.581   0.000  0.00  0.00    +0.114 C 
ATOM      8  C   LIG    1       11.309 -10.008   0.000  0.00  0.00    +0.005 C 
ENDBRANCH   1   8
TORSDOF 2
REMARK  Name = molecules/YRALAIOMGQZKOW-HYAOXDFASA-N.pdb
REMARK                            x       y       z     vdW  Elec       q    Type
REMARK                         _______ _______ _______ _____ _____    ______ ____
ROOT
ATOM      1  C   LIG    1       13.123  -5.077   0.000  0.00  0.00    +0.051 C 
ATOM      2  C   LIG    1       14.549  -5.540   0.000  0.00  0.00    +0.223 C 
ATOM      3  O   LIG    1       15.664  -4.536   0.000  0.00  0.00    -0.284 OA
ENDROOT
BRANCH   1   5
ATOM      4  N   LIG    1       11.232  -6.040   0.000  0.00  0.00    -0.133 NA
ATOM      5  C   LIG    1       11.696  -4.613   0.000  0.00  0.00    +0.143 C 
ENDBRANCH   1   5
TORSDOF 1
REMARK  Name = molecules/YRALAIOMGQZKOW-HYAOXDFASA-N.pdb
REMARK                            x       y       z     vdW  Elec       q    Type
REMARK                         _______ _______ _______ _____ _____    ______ ____
ROOT
ATOM      1  N   LIG    1        9.957  -2.682   0.000  0.00  0.00    -0.136 NA
ATOM      2  C   LIG    1        8.531  -2.219   0.000  0.00  0.00    +0.136 C 
ENDROOT
TORSDOF 0
REMARK  Name = molecules/YRALAIOMGQZKOW-HYAOXDFASA-N.pdb
REMARK                            x       y       z     vdW  Elec       q    Type
REMARK                         _______ _______ _______ _____ _____    ______ ____
ROOT
ATOM      1  C   LIG    1        8.454   1.749   0.000  0.00  0.00    +0.161 C 
ENDROOT
BRANCH   1   2
ATOM      2  C   LIG    1        9.881   1.286   0.000  0.00  0.00    +0.157 C 
ATOM      3  C   LIG    1       11.307   0.822   0.000  0.00  0.00    +0.050 C 
ATOM      4  O   LIG    1       10.344   2.712   0.000  0.00  0.00    -0.223 OA
ENDBRANCH   1   2
BRANCH   1   5
ATOM      5  N   LIG    1        7.991   0.323   0.000  0.00  0.00    -0.215 NA
ATOM      6  C   LIG    1        8.994  -0.792   0.000  0.00  0.00    +0.108 C 
ENDBRANCH   1   5
BRANCH   1   7
ATOM      7  C   LIG    1        7.028   2.213   0.000  0.00  0.00    +0.080 C 
ATOM      8  N   LIG    1        6.716   3.680   0.000  0.00  0.00    -0.284 NA
BRANCH   8   9
ATOM      9  C   LIG    1        5.289   4.143   0.000  0.00  0.00    +0.150 C 
ATOM     10  C   LIG    1        3.863   4.607   0.000  0.00  0.00    +0.016 C 
ENDBRANCH   8   9
ENDBRANCH   1   7
TORSDOF 4
REMARK  Name = molecules/YRALAIOMGQZKOW-HYAOXDFASA-N.pdb
REMARK                            x       y       z     vdW  Elec       q    Type
REMARK                         _______ _______ _______ _____ _____    ______ ____
ROOT
ATOM      1  N   LIG    1        2.748   3.603   0.000  0.00  0.00    +0.000 NA
ENDROOT
TORSDOF 0
REMARK  Name = molecules/YRALAIOMGQZKOW-HYAOXDFASA-N.pdb
REMARK                            x       y       z     vdW  Elec       q    Type
REMARK                         _______ _______ _______ _____ _____    ______ ____
ROOT
ATOM      1  N   LIG    1        1.861   1.525   0.000  0.00  0.00    -0.288 NA
ATOM      2  C   LIG    1        0.858   2.640   0.000  0.00  0.00    +0.158 C 
ATOM      3  C   LIG    1        1.398   0.099   0.000  0.00  0.00    +0.083 C 
ENDROOT
BRANCH   3   4
ATOM      4  C   LIG    1        2.825  -0.365   0.000  0.00  0.00    +0.081 C 
BRANCH   4   5
ATOM      5  C   LIG    1        4.251  -0.828   0.000  0.00  0.00    +0.031 C 
ATOM      6  S   LIG    1        5.678  -1.292   0.000  0.00  0.00    -0.065 S 
ENDBRANCH   4   5
ENDBRANCH   3   4
TORSDOF 2
REMARK  Name = molecules/YRALAIOMGQZKOW-HYAOXDFASA-N.pdb
REMARK                            x       y       z     vdW  Elec       q    Type
REMARK                         _______ _______ _______ _____ _____    ______ ____
ROOT
ATOM      1  N   LIG    1       -0.341   2.030   0.000  0.00  0.00    +0.038 NA
ATOM      2  O   LIG    1        0.061   2.668   0.000  0.00  0.00    -0.278 OA
ATOM      3  H   LIG    1        0.644   3.162   0.000  0.00  0.00    +0.240 HD
ENDROOT
TORSDOF 0
REMARK  Name = molecules/YRALAIOMGQZKOW-HYAOXDFASA-N.pdb
REMARK                            x       y       z     vdW  Elec       q    Type
REMARK                         _______ _______ _______ _____ _____    ______ ____
ROOT
ATOM      1  N   LIG    1       -3.698   0.755   0.000  0.00  0.00    -0.221 NA
ATOM      2  C   LIG    1       -2.231   1.067   0.000  0.00  0.00    +0.222 A 
ATOM      3  O   LIG    1       -1.620  -0.132   0.000  0.00  0.00    -0.420 OA
ATOM      4  C   LIG    1       -2.735  -1.135   0.000  0.00  0.00    +0.241 A 
ATOM      5  N   LIG    1       -2.423  -2.603   0.000  0.00  0.00    -0.087 NA
ATOM      6  C   LIG    1       -4.161  -0.672   0.000  0.00  0.00    +0.140 A 
ENDROOT
BRANCH   2   7
ATOM      7  C   LIG    1       -1.767   2.493   0.000  0.00  0.00    +0.063 C 
ATOM      8  C   LIG    1       -1.304   3.920   0.000  0.00  0.00    -0.021 C 
ATOM      9  C   LIG    1       -0.840   5.346   0.000  0.00  0.00    +0.031 C 
ENDBRANCH   2   7
BRANCH   6  10
ATOM     10  C   LIG    1       -5.588  -0.208   0.000  0.00  0.00    +0.086 C 
BRANCH  10  11
ATOM     11  C   LIG    1       -7.014   0.255   0.000  0.00  0.00    -0.042 A 
ATOM     12  C   LIG    1       -8.129  -0.749   0.000  0.00  0.00    +0.004 A 
ATOM     13  C   LIG    1       -9.556  -0.285   0.000  0.00  0.00    +0.000 A 
ATOM     14  C   LIG    1       -9.868   1.182   0.000  0.00  0.00    +0.000 A 
ATOM     15  C   LIG    1       -8.753   2.186   0.000  0.00  0.00    +0.000 A 
ATOM     16  C   LIG    1       -7.326   1.722   0.000  0.00  0.00    +0.004 A 
ENDBRANCH  10  11
ENDBRANCH   6  10
TORSDOF 3
REMARK  Name = molecules/YRALAIOMGQZKOW-HYAOXDFASA-N.pdb
REMARK                            x       y       z     vdW  Elec       q    Type
REMARK                         _______ _______ _______ _____ _____    ______ ____
ROOT
ATOM      1  O   HOH    1       12.396 -11.515   0.000  0.00  0.00    -0.410 OA
ATOM      2  H   HOH    0       12.581 -10.803   0.000  0.00  0.00    +0.205 HD
ATOM      3  H   HOH    0       12.886 -11.932   0.000  0.00  0.00    +0.205 HD
ENDROOT
TORSDOF 0
REMARK  Name = molecules/YRALAIOMGQZKOW-HYAOXDFASA-N.pdb
REMARK                            x       y       z     vdW  Elec       q    Type
REMARK                         _______ _______ _______ _____ _____    ______ ____
ROOT
ATOM      1  C   LIG    1       14.938 -10.975   0.000  0.00  0.00    +0.097 C 
ATOM      2  C   LIG    1       14.328 -12.346   0.000  0.00  0.00    -0.000 C 
ATOM      3  C   LIG    1       15.442 -13.349   0.000  0.00  0.00    +0.126 C 
ATOM      4  C   LIG    1       16.741 -12.599   0.000  0.00  0.00    +0.240 C 
ATOM      5  O   LIG    1       18.112 -13.209   0.000  0.00  0.00    -0.273 OA
ATOM      6  N   LIG    1       16.429 -11.132   0.000  0.00  0.00    -0.189 NA
ENDROOT
TORSDOF 0
REMARK  Name = molecules/YRALAIOMGQZKOW-HYAOXDFASA-N.pdb
REMARK                            x       y       z     vdW  Elec       q    Type
REMARK                         _______ _______ _______ _____ _____    ______ ____
ROOT
ATOM      1  C   LIG    1        6.677  -7.925   0.000  0.00  0.00    +0.139 C 
ATOM      2  C   LIG    1        5.673  -6.810   0.000  0.00  0.00    +0.018 C 
ENDROOT
BRANCH   1   3
ATOM      3  C   LIG    1        8.144  -7.613   0.000  0.00  0.00    +0.061 C 
ATOM      4  C   LIG    1        8.608  -6.187   0.000  0.00  0.00    +0.013 C 
ENDBRANCH   1   3
BRANCH   2   5
ATOM      5  C   LIG    1        6.137  -5.384   0.000  0.00  0.00    +0.039 C 
ATOM      6  C   LIG    1        7.604  -5.072   0.000  0.00  0.00    -0.005 C 
ENDBRANCH   2   5
BRANCH   1   7
ATOM      7  O   LIG    1        6.213  -9.352   0.000  0.00  0.00    -0.342 OA
BRANCH   7   8
ATOM      8  S   LIG    1        7.217 -10.466   0.000  0.00  0.00    +0.191 S 
ATOM      9  O   LIG    1        6.102 -11.470   0.000  0.00  0.00    -0.125 OA
BRANCH   8  10
ATOM     10  O   LIG    1        8.332  -9.463   0.000  0.00  0.00    -0.236 OA
ATOM     11  H   LIG    1        9.148  -8.728   0.000  0.00  0.00    +0.246 HD
ENDBRANCH   8  10
ENDBRANCH   7   8
ENDBRANCH   1   7
TORSDOF 5
REMARK  Name = molecules/YRALAIOMGQZKOW-HYAOXDFASA-N.pdb
REMARK                            x       y       z     vdW  Elec       q    Type
REMARK                         _______ _______ _______ _____ _____    ______ ____
ROOT
ATOM      1  O   HOH    1        8.221 -11.581   0.000  0.00  0.00    -0.410 OA
ATOM      2  H   HOH    0        7.671 -12.334   0.000  0.00  0.00    +0.205 HD
ATOM      3  H   HOH    0        9.419 -10.971   0.000  0.00  0.00    +0.205 HD
ENDROOT
TORSDOF 0
REMARK  Name = molecules/YRALAIOMGQZKOW-HYAOXDFASA-N.pdb
REMARK                            x       y       z     vdW  Elec       q    Type
REMARK                         _______ _______ _______ _____ _____    ______ ____
ROOT
ATOM      1  C   LIG    1       12.236  -7.154   0.000  0.00  0.00    +0.000 C 
ENDROOT
TORSDOF 0
REMARK  Name = molecules/YRALAIOMGQZKOW-HYAOXDFASA-N.pdb
REMARK                            x       y       z     vdW  Elec       q    Type
REMARK                         _______ _______ _______ _____ _____    ______ ____
ROOT
ATOM      1  O   LIG    1       13.703  -6.843   0.000  0.00  0.00    -0.253 OA
ATOM      2  H   LIG    1       13.018  -6.573   0.000  0.00  0.00    +0.253 HD
ENDROOT
BRANCH   1   3
ATOM      3  O   LIG    1       14.861  -7.007   0.000  0.00  0.00    -0.253 OA
ATOM      4  H   LIG    1       14.314  -8.041   0.000  0.00  0.00    +0.253 HD
ENDBRANCH   1   3
TORSDOF 1
REMARK  Name = molecules/YRALAIOMGQZKOW-HYAOXDFASA-N.pdb
REMARK                            x       y       z     vdW  Elec       q    Type
REMARK                         _______ _______ _______ _____ _____    ______ ____
ROOT
ATOM      1  C   LIG    1       10.269  -4.150   0.000  0.00  0.00    +0.000 C 
ENDROOT
TORSDOF 0
REMARK  Name = molecules/YRALAIOMGQZKOW-HYAOXDFASA-N.pdb
REMARK                            x       y       z     vdW  Elec       q    Type
REMARK                         _______ _______ _______ _____ _____    ______ ____
ROOT
ATOM      1  O   HOH    1        9.155  -5.153   0.000  0.00  0.00    -0.410 OA
ATOM      2  H   HOH    0       10.026  -5.698   0.000  0.00  0.00    +0.205 HD
ATOM      3  H   HOH    0        9.339  -4.440   0.000  0.00  0.00    +0.205 HD
ENDROOT
TORSDOF 0
REMARK  Name = molecules/YRALAIOMGQZKOW-HYAOXDFASA-N.pdb
REMARK                            x       y       z     vdW  Elec       q    Type
REMARK                         _______ _______ _______ _____ _____    ______ ____
ROOT
ATOM      1  C   LIG    1        8.067  -3.645   0.000  0.00  0.00    +0.000 C 
ENDROOT
TORSDOF 0
REMARK  Name = molecules/YRALAIOMGQZKOW-HYAOXDFASA-N.pdb
REMARK                            x       y       z     vdW  Elec       q    Type
REMARK                         _______ _______ _______ _____ _____    ______ ____
ROOT
ATOM      1  O   HOH    1       10.489  -0.661   0.000  0.00  0.00    -0.410 OA
ATOM      2  H   HOH    0        9.776  -0.211   0.000  0.00  0.00    +0.205 HD
ATOM      3  H   HOH    0       11.072  -1.679   0.000  0.00  0.00    +0.205 HD
ENDROOT
TORSDOF 0
REMARK  Name = molecules/YRALAIOMGQZKOW-HYAOXDFASA-N.pdb
REMARK                            x       y       z     vdW  Elec       q    Type
REMARK                         _______ _______ _______ _____ _____    ______ ____
ROOT
ATOM      1  O   HOH    1        5.913   1.209   0.000  0.00  0.00    -0.410 OA
ATOM      2  H   HOH    0        4.715   0.598   0.000  0.00  0.00    +0.205 HD
ATOM      3  H   HOH    0        6.524   0.011   0.000  0.00  0.00    +0.205 HD
ENDROOT
TORSDOF 0
REMARK  Name = molecules/YRALAIOMGQZKOW-HYAOXDFASA-N.pdb
REMARK                            x       y       z     vdW  Elec       q    Type
REMARK                         _______ _______ _______ _____ _____    ______ ____
ROOT
ATOM      1  C   LIG    1        3.675   7.383   0.000  0.00  0.00    +0.251 C 
ATOM      2  N   LIG    1        3.675   8.883   0.000  0.00  0.00    -0.215 NA
ATOM      3  C   LIG    1        2.248   9.347   0.000  0.00  0.00    +0.059 C 
ATOM      4  C   LIG    1        1.638  10.717   0.000  0.00  0.00    +0.025 C 
ATOM      5  C   LIG    1        1.367   8.133   0.000  0.00  0.00    +0.013 C 
ATOM      6  C   LIG    1        2.248   6.920   0.000  0.00  0.00    +0.029 C 
ENDROOT
BRANCH   1   7
ATOM      7  O   LIG    1        3.551   6.074   0.000  0.00  0.00    -0.369 OA
ATOM      8  H   LIG    1        3.281   5.389   0.000  0.00  0.00    +0.212 HD
ENDBRANCH   1   7
BRANCH   4   9
ATOM      9  C   LIG    1        0.146  10.874   0.000  0.00  0.00    +0.002 C 
ATOM     10  C   LIG    1       -0.735   9.661   0.000  0.00  0.00    +0.000 C 
ENDBRANCH   4   9
BRANCH   6  11
ATOM     11  C   LIG    1        1.785   5.493   0.000  0.00  0.00    +0.208 C 
ATOM     12  O   LIG    1        0.578   5.835   0.000  0.00  0.00    -0.215 OA
ENDBRANCH   6  11
TORSDOF 3
REMARK  Name = molecules/YRALAIOMGQZKOW-HYAOXDFASA-N.pdb
REMARK                            x       y       z     vdW  Elec       q    Type
REMARK                         _______ _______ _______ _____ _____    ______ ____
ROOT
ATOM      1  C   LIG    1       -0.125   8.290   0.000  0.00  0.00    +0.000 C 
ENDROOT
TORSDOF 0
REMARK  Name = molecules/YRALAIOMGQZKOW-HYAOXDFASA-N.pdb
REMARK                            x       y       z     vdW  Elec       q    Type
REMARK                         _______ _______ _______ _____ _____    ______ ____
ROOT
ATOM      1  C   LIG    1        1.321   4.067   0.000  0.00  0.00    +0.000 C 
ENDROOT
TORSDOF 0
REMARK  Name = molecules/YRALAIOMGQZKOW-HYAOXDFASA-N.pdb
REMARK                            x       y       z     vdW  Elec       q    Type
REMARK                         _______ _______ _______ _____ _____    ______ ____
ROOT
ATOM      1  C   LIG    1       -0.029   0.562   0.000  0.00  0.00    +0.217 C 
ATOM      2  O   LIG    1       -1.227  -0.048   0.000  0.00  0.00    -0.217 OA
ENDROOT
TORSDOF 0
REMARK  Name = molecules/YRALAIOMGQZKOW-HYAOXDFASA-N.pdb
REMARK                            x       y       z     vdW  Elec       q    Type
REMARK                         _______ _______ _______ _____ _____    ______ ____
ROOT
ATOM      1  C   LIG    1        5.990  -2.759   0.000  0.00  0.00    -0.000 C 
ENDROOT
TORSDOF 0
REMARK  Name = molecules/YRALAIOMGQZKOW-HYAOXDFASA-N.pdb
REMARK                            x       y       z     vdW  Elec       q    Type
REMARK                         _______ _______ _______ _____ _____    ______ ____
ROOT
ATOM      1  O   HOH    1       -1.143  -0.441   0.000  0.00  0.00    +0.000 OA
ENDROOT
TORSDOF 0
REMARK  Name = molecules/YRALAIOMGQZKOW-HYAOXDFASA-N.pdb
REMARK                            x       y       z     vdW  Elec       q    Type
REMARK                         _______ _______ _______ _____ _____    ______ ____
ROOT
ATOM      1  O   HOH    1       -1.844   6.461   0.000  0.00  0.00    -0.253 OA
ATOM      2  H   HOH    0       -1.148   7.193   0.000  0.00  0.00    +0.253 HD
ENDROOT
TORSDOF 0
REMARK  Name = molecules/YRALAIOMGQZKOW-HYAOXDFASA-N.pdb
REMARK                            x       y       z     vdW  Elec       q    Type
REMARK                         _______ _______ _______ _____ _____    ______ ____
ROOT
ATOM      1  H   UNK    1        7.830   4.684   0.000  0.00  0.00    +0.000 HD
ENDROOT
TORSDOF 0
REMARK  Name = molecules/YRALAIOMGQZKOW-HYAOXDFASA-N.pdb
REMARK                            x       y       z     vdW  Elec       q    Type
REMARK                         _______ _______ _______ _____ _____    ______ ____
ROOT
ATOM      1  H   UNK    1        3.236   2.185   0.000  0.00  0.00    +0.000 HD
ENDROOT
TORSDOF 0
REMARK  Name = molecules/YRALAIOMGQZKOW-HYAOXDFASA-N.pdb
REMARK                            x       y       z     vdW  Elec       q    Type
REMARK                         _______ _______ _______ _____ _____    ______ ____
ROOT
ATOM      1  H   UNK    1        3.329   1.837   0.000  0.00  0.00    +0.000 HD
ENDROOT
TORSDOF 0
REMARK  Name = molecules/YRALAIOMGQZKOW-HYAOXDFASA-N.pdb
REMARK                            x       y       z     vdW  Elec       q    Type
REMARK                         _______ _______ _______ _____ _____    ______ ____
ROOT
ATOM      1  H   UNK    1       -4.558   1.983   0.000  0.00  0.00    +0.000 HD
ENDROOT
TORSDOF 0
REMARK  Name = molecules/YRALAIOMGQZKOW-HYAOXDFASA-N.pdb
REMARK                            x       y       z     vdW  Elec       q    Type
REMARK                         _______ _______ _______ _____ _____    ______ ____
ROOT
ATOM      1  H   UNK    1       -0.996  -3.066   0.000  0.00  0.00    +0.000 HD
ENDROOT
TORSDOF 0
REMARK  Name = molecules/YRALAIOMGQZKOW-HYAOXDFASA-N.pdb
REMARK                            x       y       z     vdW  Elec       q    Type
REMARK                         _______ _______ _______ _____ _____    ______ ____
ROOT
ATOM      1  H   UNK    1       -3.538  -3.606   0.000  0.00  0.00    +0.000 HD
ENDROOT
TORSDOF 0
REMARK  Name = molecules/YRALAIOMGQZKOW-HYAOXDFASA-N.pdb
REMARK                            x       y       z     vdW  Elec       q    Type
REMARK                         _______ _______ _______ _____ _____    ______ ____
ROOT
ATOM      1  H   UNK    1       17.433 -10.017   0.000  0.00  0.00    +0.000 HD
ENDROOT
TORSDOF 0
REMARK  Name = molecules/YRALAIOMGQZKOW-HYAOXDFASA-N.pdb
REMARK                            x       y       z     vdW  Elec       q    Type
REMARK                         _______ _______ _______ _____ _____    ______ ____
ROOT
ATOM      1  H   UNK    1        8.451 -14.599   0.000  0.00  0.00    +0.000 HD
ENDROOT
TORSDOF 0
REMARK  Name = molecules/YRALAIOMGQZKOW-HYAOXDFASA-N.pdb
REMARK                            x       y       z     vdW  Elec       q    Type
REMARK                         _______ _______ _______ _____ _____    ______ ____
ROOT
ATOM      1  H   UNK    1       17.090  -5.000   0.000  0.00  0.00    +0.000 HD
ENDROOT
TORSDOF 0
REMARK  Name = molecules/YRALAIOMGQZKOW-HYAOXDFASA-N.pdb
REMARK                            x       y       z     vdW  Elec       q    Type
REMARK                         _______ _______ _______ _____ _____    ______ ____
ROOT
ATOM      1  H   UNK    1       11.763   3.200   0.000  0.00  0.00    +0.000 HD
ENDROOT
TORSDOF 0
REMARK  Name = molecules/YRALAIOMGQZKOW-HYAOXDFASA-N.pdb
REMARK                            x       y       z     vdW  Elec       q    Type
REMARK                         _______ _______ _______ _____ _____    ______ ____
ROOT
ATOM      1  H   UNK    1        4.888   9.765   0.000  0.00  0.00    +0.000 HD
ENDROOT
TORSDOF 0
REMARK  Name = molecules/YRALAIOMGQZKOW-HYAOXDFASA-N.pdb
REMARK                            x       y       z     vdW  Elec       q    Type
REMARK                         _______ _______ _______ _____ _____    ______ ____
ROOT
ATOM      1  H   UNK    1        4.522  -3.071   0.000  0.00  0.00    +0.000 HD
ENDROOT
TORSDOF 0
