REMARK  Name = molecules/YRCRRHNVYVFNTM-SCSAIBSYSA-N.pdb
REMARK                            x       y       z     vdW  Elec       q    Type
REMARK                         _______ _______ _______ _____ _____    ______ ____
ROOT
ATOM      1  C   LIG    1        1.212   0.604  -0.380  0.00  0.00    +0.216 C 
ATOM      2  O   LIG    1        1.055   1.350  -1.320  0.00  0.00    -0.289 OA
ENDROOT
BRANCH   1   3
ATOM      3  C   LIG    1        0.029   0.106   0.355  0.00  0.00    +0.186 C 
ATOM      4  C   LIG    1        0.121   0.478   1.831  0.00  0.00    +0.046 C 
BRANCH   3   5
ATOM      5  O   LIG    1       -1.160   0.597  -0.174  0.00  0.00    -0.369 OA
BRANCH   5   7
ATOM      6  C   LIG    1       -3.282  -0.067  -1.095  0.00  0.00    +0.034 C 
ATOM      7  C   LIG    1       -1.967  -0.469  -0.512  0.00  0.00    +0.157 C 
ENDBRANCH   5   7
ENDBRANCH   3   5
ENDBRANCH   1   3
BRANCH   1   8
ATOM      8  C   LIG    1        2.564   0.190   0.037  0.00  0.00    +0.316 C 
BRANCH   8   9
ATOM      9  O   LIG    1        2.457  -0.660   1.132  0.00  0.00    -0.361 OA
ATOM     10  H   LIG    1        2.580  -1.589   0.779  0.00  0.00    +0.213 HD
ENDBRANCH   8   9
BRANCH   8  11
ATOM     11  O   LIG    1        3.279  -0.415  -0.997  0.00  0.00    -0.361 OA
ATOM     12  H   LIG    1        4.110   0.106  -1.208  0.00  0.00    +0.213 HD
ENDBRANCH   8  11
ENDBRANCH   1   8
TORSDOF 6
