REMARK  Name = molecules/YRFXGQHBPBMFHW-SBTZIJSASA-N.pdb
REMARK                            x       y       z     vdW  Elec       q    Type
REMARK                         _______ _______ _______ _____ _____    ______ ____
ROOT
ATOM      1  F   LIG    1       -1.706   1.725  -0.668  0.00  0.00    -0.238 F 
ATOM      2  C   LIG    1       -1.271   0.781   0.291  0.00  0.00    +0.153 C 
ATOM      3  C   LIG    1       -2.522   0.444   1.045  0.00  0.00    +0.045 C 
ATOM      4  C   LIG    1       -2.292  -0.738   1.995  0.00  0.00    +0.023 C 
ATOM      5  C   LIG    1       -2.989   1.536   1.901  0.00  0.00    -0.009 C 
ATOM      6  C   LIG    1       -4.157   2.127   1.783  0.00  0.00    +0.047 C 
ATOM      7  C   LIG    1       -5.109   1.736   0.772  0.00  0.00    +0.179 C 
ATOM      8  O   LIG    1       -6.212   2.303   0.670  0.00  0.00    -0.288 OA
ATOM      9  C   LIG    1       -4.719   0.659  -0.115  0.00  0.00    +0.051 C 
ATOM     10  C   LIG    1       -3.547   0.100   0.036  0.00  0.00    -0.050 C 
ATOM     11  C   LIG    1       -3.208  -0.981  -0.952  0.00  0.00    +0.013 C 
ATOM     12  C   LIG    1       -1.941  -0.507  -1.688  0.00  0.00    +0.014 C 
ATOM     13  C   LIG    1       -4.325  -1.296  -1.871  0.00  0.00    +0.012 C 
ATOM     14  C   LIG    1       -0.100   1.328   0.947  0.00  0.00    +0.154 C 
ATOM     15  C   LIG    1        1.087   0.424   1.192  0.00  0.00    +0.045 C 
ATOM     16  C   LIG    1        1.360  -0.568   0.108  0.00  0.00    +0.020 C 
ATOM     17  C   LIG    1        1.123  -1.941   0.647  0.00  0.00    +0.016 C 
ATOM     18  C   LIG    1        2.720  -0.441  -0.546  0.00  0.00    +0.176 C 
ATOM     19  C   LIG    1        2.501  -0.541  -2.044  0.00  0.00    +0.057 C 
ATOM     20  C   LIG    1        1.017  -0.953  -2.180  0.00  0.00    +0.009 C 
ATOM     21  C   LIG    1        0.458  -0.182  -1.044  0.00  0.00    +0.006 C 
ATOM     22  C   LIG    1       -0.916  -0.442  -0.600  0.00  0.00    +0.034 C 
ENDROOT
BRANCH  18  23
ATOM     23  C   LIG    1        3.525  -1.635  -0.169  0.00  0.00    +0.174 C 
ATOM     24  C   LIG    1        4.715  -1.460   0.688  0.00  0.00    +0.090 C 
ATOM     25  O   LIG    1        3.241  -2.761  -0.539  0.00  0.00    -0.293 OA
ENDBRANCH  18  23
BRANCH  14  26
ATOM     26  O   LIG    1       -0.354   1.966   2.142  0.00  0.00    -0.389 OA
ATOM     27  H   LIG    1        0.508   2.294   2.500  0.00  0.00    +0.210 HD
ENDBRANCH  14  26
BRANCH  18  28
ATOM     28  O   LIG    1        3.294   0.774  -0.136  0.00  0.00    -0.450 OA
BRANCH  28  29
ATOM     29  C   LIG    1        4.506   1.260  -0.530  0.00  0.00    +0.305 C 
ATOM     30  C   LIG    1        5.068   2.564  -0.053  0.00  0.00    +0.136 C 
ATOM     31  O   LIG    1        5.202   0.592  -1.335  0.00  0.00    -0.251 OA
ENDBRANCH  28  29
ENDBRANCH  18  28
TORSDOF 4
