REMARK  Name = molecules/YRIZYWQGELRKNT-UHFFFAOYSA-N.pdb
REMARK                            x       y       z     vdW  Elec       q    Type
REMARK                         _______ _______ _______ _____ _____    ______ ____
ROOT
ATOM      1  O   LIG    1        0.580  -2.542   0.000  0.00  0.00    -0.243 OA
ATOM      2  C   LIG    1        0.313  -1.332   0.000  0.00  0.00    +0.367 A 
ATOM      3  N   LIG    1        1.265  -0.390   0.011  0.00  0.00    -0.150 N 
ATOM      4 CL   LIG    1        2.934  -0.901   0.025  0.00  0.00    +0.027 Cl
ATOM      5  C   LIG    1        0.961   0.920   0.011  0.00  0.00    +0.367 A 
ATOM      6  O   LIG    1        1.875   1.803   0.021  0.00  0.00    -0.243 OA
ATOM      7  N   LIG    1       -0.316   1.341   0.000  0.00  0.00    -0.150 N 
ATOM      8 CL   LIG    1       -0.715   3.037   0.000  0.00  0.00    +0.027 Cl
ATOM      9  C   LIG    1       -1.261   0.387  -0.011  0.00  0.00    +0.367 A 
ATOM     10  O   LIG    1       -2.465   0.735  -0.021  0.00  0.00    -0.243 OA
ATOM     11  N   LIG    1       -0.959  -0.926  -0.011  0.00  0.00    -0.150 N 
ATOM     12 CL   LIG    1       -2.211  -2.133  -0.025  0.00  0.00    +0.027 Cl
ENDROOT
TORSDOF 0
