REMARK  Name = molecules/YSEXMKHXIOCEJA-FVFQAYNVSA-N.pdb
REMARK                            x       y       z     vdW  Elec       q    Type
REMARK                         _______ _______ _______ _____ _____    ______ ____
ROOT
ATOM      1  C   LIG    1       -1.138   0.437   0.026  0.00  0.00    +0.111 C 
ATOM      2  C   LIG    1       -0.118   0.698   1.105  0.00  0.00    +0.049 C 
ATOM      3  C   LIG    1        1.231   0.324   0.545  0.00  0.00    +0.044 C 
ATOM      4  C   LIG    1        1.180  -0.652  -0.597  0.00  0.00    +0.091 C 
ATOM      5  N   LIG    1        0.095  -1.549  -0.582  0.00  0.00    -0.299 NA
ATOM      6  C   LIG    1        0.399  -2.907  -0.303  0.00  0.00    +0.105 C 
ATOM      7  C   LIG    1       -2.455   0.981   0.324  0.00  0.00    -0.005 A 
ATOM      8  C   LIG    1       -2.671   2.187   1.003  0.00  0.00    +0.007 A 
ATOM      9  C   LIG    1       -3.977   2.631   1.226  0.00  0.00    +0.002 A 
ATOM     10  C   LIG    1       -5.059   1.894   0.783  0.00  0.00    +0.026 A 
ATOM     11  C   LIG    1       -4.868   0.711   0.117  0.00  0.00    +0.049 A 
ATOM     12  N   LIG    1       -5.643  -0.238  -0.436  0.00  0.00    -0.349 N 
ATOM     13  C   LIG    1       -7.101  -0.210  -0.453  0.00  0.00    +0.149 C 
ATOM     14  C   LIG    1       -4.847  -1.219  -0.971  0.00  0.00    +0.090 A 
ATOM     15  C   LIG    1       -3.538  -0.875  -0.747  0.00  0.00    -0.020 A 
ATOM     16  C   LIG    1       -2.263  -1.528  -1.066  0.00  0.00    +0.059 C 
ATOM     17  C   LIG    1       -3.565   0.306  -0.083  0.00  0.00    +0.009 A 
ATOM     18  C   LIG    1       -1.158  -1.076  -0.141  0.00  0.00    +0.097 C 
ENDROOT
BRANCH   1  19
ATOM     19  O   LIG    1       -0.765   0.934  -1.223  0.00  0.00    -0.370 OA
ATOM     20  C   LIG    1       -0.720   2.296  -1.319  0.00  0.00    +0.195 C 
ENDBRANCH   1  19
BRANCH   3  21
ATOM     21  C   LIG    1        2.061  -0.193   1.700  0.00  0.00    +0.237 C 
BRANCH  21  22
ATOM     22  O   LIG    1        3.348  -0.582   1.335  0.00  0.00    -0.461 OA
BRANCH  22  23
ATOM     23  C   LIG    1        4.297   0.253   0.761  0.00  0.00    +0.341 C 
ATOM     24  O   LIG    1        3.962   1.432   0.563  0.00  0.00    -0.245 OA
BRANCH  23  25
ATOM     25  C   LIG    1        5.626  -0.180   0.392  0.00  0.00    +0.078 A 
ATOM     26  C   LIG    1        6.025  -1.476   0.598  0.00  0.00    +0.125 A 
ATOM     27  N   LIG    1        7.284  -1.850   0.238  0.00  0.00    -0.261 NA
ATOM     28  C   LIG    1        8.159  -1.000  -0.312  0.00  0.00    +0.126 A 
ATOM     29  C   LIG    1        7.797   0.318  -0.537  0.00  0.00    +0.037 A 
ATOM     30 BR   LIG    1        8.966   1.588  -1.310  0.00  0.00    -0.049 Br
ATOM     31  C   LIG    1        6.511   0.703  -0.171  0.00  0.00    +0.033 A 
ENDBRANCH  23  25
ENDBRANCH  22  23
ENDBRANCH  21  22
ENDBRANCH   3  21
TORSDOF 5
