REMARK  Name = molecules/YSXKPIUOCJLQIE-ZFMNYDKASA-N.pdb
REMARK                            x       y       z     vdW  Elec       q    Type
REMARK                         _______ _______ _______ _____ _____    ______ ____
ROOT
ATOM      1  C   LIG    1       -1.271   0.455  -0.725  0.00  0.00    +0.095 C 
ENDROOT
BRANCH   1   2
ATOM      2  C   LIG    1       -2.203  -0.577  -0.294  0.00  0.00    +0.033 C 
ATOM      3  C   LIG    1       -2.244  -1.270   0.956  0.00  0.00    +0.018 C 
ATOM      4  C   LIG    1       -3.661  -1.809   1.130  0.00  0.00    -0.027 C 
ATOM      5  C   LIG    1       -3.859  -2.704   0.166  0.00  0.00    -0.027 C 
ATOM      6  C   LIG    1       -2.570  -2.918  -0.521  0.00  0.00    +0.012 C 
ATOM      7  C   LIG    1       -1.603  -2.646   0.651  0.00  0.00    +0.015 C 
ATOM      8  C   LIG    1       -2.292  -1.709  -1.344  0.00  0.00    +0.015 C 
ENDBRANCH   1   2
BRANCH   1   9
ATOM      9  C   LIG    1       -1.530   1.851  -0.290  0.00  0.00    -0.016 A 
ATOM     10  C   LIG    1       -1.592   2.190   1.068  0.00  0.00    +0.006 A 
ATOM     11  C   LIG    1       -1.784   3.488   1.491  0.00  0.00    +0.000 A 
ATOM     12  C   LIG    1       -1.927   4.508   0.584  0.00  0.00    +0.000 A 
ATOM     13  C   LIG    1       -1.872   4.206  -0.743  0.00  0.00    +0.000 A 
ATOM     14  C   LIG    1       -1.681   2.925  -1.145  0.00  0.00    +0.006 A 
ENDBRANCH   1   9
BRANCH   1  15
ATOM     15  O   LIG    1       -1.559   0.445  -2.142  0.00  0.00    -0.384 OA
ATOM     16  H   LIG    1       -0.854   0.894  -2.635  0.00  0.00    +0.211 HD
ENDBRANCH   1  15
BRANCH   1  17
ATOM     17  C   LIG    1        0.201   0.183  -0.789  0.00  0.00    +0.055 C 
BRANCH  17  18
ATOM     18  C   LIG    1        0.916   0.204   0.524  0.00  0.00    +0.087 C 
BRANCH  18  19
ATOM     19  N   LIG    1        2.305   0.018   0.336  0.00  0.00    -0.302 NA
ATOM     20  C   LIG    1        3.085   0.314   1.457  0.00  0.00    +0.084 C 
ATOM     21  C   LIG    1        4.559   0.062   1.335  0.00  0.00    +0.015 C 
ATOM     22  C   LIG    1        4.768  -1.278   0.672  0.00  0.00    +0.002 C 
ATOM     23  C   LIG    1        4.184  -1.136  -0.710  0.00  0.00    +0.015 C 
ATOM     24  C   LIG    1        2.764  -0.702  -0.750  0.00  0.00    +0.084 C 
ENDBRANCH  18  19
ENDBRANCH  17  18
ENDBRANCH   1  17
TORSDOF 6
