REMARK  Name = molecules/YTAOBBFIOAEMLL-REQDGWNSSA-N.pdb
REMARK                            x       y       z     vdW  Elec       q    Type
REMARK                         _______ _______ _______ _____ _____    ______ ____
ROOT
ATOM      1  C   LIG    1       -1.248  -1.417  -0.006  0.00  0.00    +0.093 C 
ATOM      2  C   LIG    1       -0.492  -1.385   1.253  0.00  0.00    +0.094 C 
ATOM      3  S   LIG    1        1.286  -1.579   0.907  0.00  0.00    -0.114 S 
ATOM      4  C   LIG    1        1.406  -0.605  -0.598  0.00  0.00    +0.076 C 
ATOM      5  C   LIG    1        2.389   0.151  -0.990  0.00  0.00    +0.145 C 
ATOM      6  S   LIG    1       -0.159  -0.928  -1.385  0.00  0.00    -0.107 S 
ENDROOT
BRANCH   1   9
ATOM      7 CL   LIG    1       -3.116  -2.040  -2.270  0.00  0.00    -0.083 Cl
ATOM      8  C   LIG    1       -3.311  -0.727  -1.109  0.00  0.00    +0.047 A 
ATOM      9  C   LIG    1       -2.407  -0.522  -0.089  0.00  0.00    -0.015 A 
ATOM     10  C   LIG    1       -2.621   0.509   0.773  0.00  0.00    +0.007 A 
ATOM     11  C   LIG    1       -3.747   1.346   0.620  0.00  0.00    +0.020 A 
ATOM     12  C   LIG    1       -4.625   1.122  -0.398  0.00  0.00    +0.042 A 
ATOM     13 CL   LIG    1       -6.032   2.179  -0.579  0.00  0.00    -0.083 Cl
ATOM     14  C   LIG    1       -4.420   0.083  -1.275  0.00  0.00    +0.040 A 
ENDBRANCH   1   9
BRANCH   5  15
ATOM     15  N   LIG    1        3.576   0.286  -0.216  0.00  0.00    -0.296 N 
ATOM     16  C   LIG    1        4.287  -0.735   0.308  0.00  0.00    +0.204 A 
ATOM     17  N   LIG    1        5.363  -0.252   0.993  0.00  0.00    -0.244 NA
ATOM     18  C   LIG    1        5.339   1.083   0.908  0.00  0.00    +0.130 A 
ATOM     19  C   LIG    1        4.227   1.406   0.155  0.00  0.00    +0.113 A 
ENDBRANCH   5  15
BRANCH   5  20
ATOM     20  C   LIG    1        2.187   0.838  -2.256  0.00  0.00    +0.119 C 
ATOM     21  N   LIG    1        2.040   1.395  -3.263  0.00  0.00    -0.189 NA
ENDBRANCH   5  20
TORSDOF 3
