REMARK  Name = molecules/YTJIBEDMAQUYSZ-FDNPDPBUSA-N.pdb
REMARK                            x       y       z     vdW  Elec       q    Type
REMARK                         _______ _______ _______ _____ _____    ______ ____
ROOT
ATOM      1  C   LIG    1        1.462   1.499  -0.945  0.00  0.00    +0.015 C 
ATOM      2  C   LIG    1        1.521   0.170  -0.271  0.00  0.00    +0.009 C 
ATOM      3  C   LIG    1        0.673   0.127   0.995  0.00  0.00    +0.006 C 
ATOM      4  C   LIG    1        1.460   0.905   1.962  0.00  0.00    +0.008 C 
ATOM      5  C   LIG    1        2.839   0.252   1.772  0.00  0.00    +0.043 C 
ATOM      6  C   LIG    1       -0.685   0.642   0.640  0.00  0.00    +0.023 C 
ATOM      7  C   LIG    1       -1.476   0.710   1.916  0.00  0.00    -0.003 C 
ATOM      8  C   LIG    1       -2.697   0.218   2.034  0.00  0.00    +0.041 C 
ATOM      9 CL   LIG    1       -3.586   0.310   3.561  0.00  0.00    -0.084 Cl
ATOM     10  C   LIG    1       -3.365  -0.438   0.893  0.00  0.00    -0.016 C 
ATOM     11  C   LIG    1       -4.380  -1.216   1.084  0.00  0.00    +0.056 C 
ATOM     12  C   LIG    1       -5.016  -1.866  -0.055  0.00  0.00    +0.179 C 
ATOM     13  O   LIG    1       -6.001  -2.621   0.125  0.00  0.00    -0.288 OA
ATOM     14  C   LIG    1       -4.444  -1.584  -1.364  0.00  0.00    +0.047 C 
ATOM     15  C   LIG    1       -3.408  -0.789  -1.553  0.00  0.00    -0.012 C 
ATOM     16  C   LIG    1       -2.742  -0.116  -0.439  0.00  0.00    +0.018 C 
ATOM     17  C   LIG    1       -3.032   1.385  -0.611  0.00  0.00    +0.021 C 
ATOM     18  C   LIG    1       -1.298  -0.409  -0.276  0.00  0.00    +0.039 C 
ATOM     19  C   LIG    1       -0.497  -0.738  -1.459  0.00  0.00    +0.120 C 
ATOM     20  C   LIG    1        2.889  -0.070   0.261  0.00  0.00    +0.131 C 
ATOM     21  C   LIG    1        0.964  -0.962  -1.105  0.00  0.00    +0.041 C 
ENDROOT
BRANCH  19  22
ATOM     22  O   LIG    1       -0.513   0.036  -2.558  0.00  0.00    -0.391 OA
ATOM     23  H   LIG    1       -1.177   0.684  -2.733  0.00  0.00    +0.210 HD
ENDBRANCH  19  22
BRANCH  20  24
ATOM     24  O   LIG    1        3.225  -1.412   0.084  0.00  0.00    -0.380 OA
ATOM     25  H   LIG    1        3.046  -1.647  -0.838  0.00  0.00    +0.211 HD
ENDBRANCH  20  24
BRANCH  20  26
ATOM     26  C   LIG    1        3.962   0.785  -0.280  0.00  0.00    +0.190 C 
ATOM     27  O   LIG    1        3.894   1.996  -0.271  0.00  0.00    -0.292 OA
BRANCH  26  28
ATOM     28  C   LIG    1        5.186   0.199  -0.865  0.00  0.00    +0.233 C 
BRANCH  28  29
ATOM     29  O   LIG    1        5.275  -1.163  -0.829  0.00  0.00    -0.387 OA
ATOM     30  H   LIG    1        5.775  -1.465  -0.011  0.00  0.00    +0.210 HD
ENDBRANCH  28  29
ENDBRANCH  26  28
ENDBRANCH  20  26
TORSDOF 5
