REMARK  Name = molecules/YTKUWDBFDASYHO-UHFFFAOYSA-N.pdb
REMARK                            x       y       z     vdW  Elec       q    Type
REMARK                         _______ _______ _______ _____ _____    ______ ____
ROOT
ATOM      1  C   LIG    1        2.540  -2.093  -1.100  0.00  0.00    +0.150 C 
ATOM      2  N   LIG    1        1.843  -1.222  -0.170  0.00  0.00    -0.331 N 
ATOM      3  C   LIG    1        2.326  -0.551   0.879  0.00  0.00    +0.111 A 
ATOM      4  N   LIG    1        1.300   0.099   1.450  0.00  0.00    -0.232 NA
ATOM      5  C   LIG    1        0.178  -0.159   0.768  0.00  0.00    +0.091 A 
ATOM      6  C   LIG    1       -1.135   0.252   0.934  0.00  0.00    +0.053 A 
ATOM      7  C   LIG    1       -2.153  -0.146   0.096  0.00  0.00    +0.032 A 
ATOM      8  C   LIG    1       -1.793  -0.994  -0.941  0.00  0.00    +0.025 A 
ATOM      9  C   LIG    1       -0.476  -1.416  -1.123  0.00  0.00    +0.030 A 
ATOM     10  C   LIG    1        0.511  -0.997  -0.264  0.00  0.00    +0.069 A 
ENDROOT
BRANCH   7  11
ATOM     11  N   LIG    1       -3.510   0.258   0.285  0.00  0.00    -0.328 N 
BRANCH  11  12
ATOM     12  C   LIG    1       -3.982   0.949   1.466  0.00  0.00    +0.121 C 
BRANCH  12  13
ATOM     13  C   LIG    1       -4.410   2.369   1.164  0.00  0.00    +0.127 C 
ATOM     14 CL   LIG    1       -2.987   3.243   0.507  0.00  0.00    -0.124 Cl
ENDBRANCH  12  13
ENDBRANCH  11  12
BRANCH  11  15
ATOM     15  C   LIG    1       -4.483  -0.059  -0.740  0.00  0.00    +0.121 C 
BRANCH  15  16
ATOM     16  C   LIG    1       -5.463  -1.123  -0.311  0.00  0.00    +0.127 C 
ATOM     17 CL   LIG    1       -6.580  -1.382  -1.693  0.00  0.00    -0.124 Cl
ENDBRANCH  15  16
ENDBRANCH  11  15
ENDBRANCH   7  11
BRANCH   3  18
ATOM     18  C   LIG    1        3.698  -0.474   1.370  0.00  0.00    +0.075 C 
BRANCH  18  19
ATOM     19  C   LIG    1        4.791  -0.501   0.375  0.00  0.00    +0.019 C 
BRANCH  19  20
ATOM     20  C   LIG    1        4.829   0.601  -0.625  0.00  0.00    +0.121 C 
BRANCH  20  21
ATOM     21  C   LIG    1        4.981   1.944   0.006  0.00  0.00    +0.305 C 
ATOM     22  O   LIG    1        5.075   2.132   1.237  0.00  0.00    -0.251 OA
BRANCH  21  23
ATOM     23  O   LIG    1        5.024   3.087  -0.810  0.00  0.00    -0.481 OA
ATOM     24  H   LIG    1        5.892   3.180  -1.361  0.00  0.00    +0.295 HD
ENDBRANCH  21  23
ENDBRANCH  20  21
ENDBRANCH  19  20
ENDBRANCH  18  19
ENDBRANCH   3  18
TORSDOF 10
