REMARK  Name = molecules/YTLQFZVCLXFFRK-UHFFFAOYSA-N.pdb
REMARK                            x       y       z     vdW  Elec       q    Type
REMARK                         _______ _______ _______ _____ _____    ______ ____
ROOT
ATOM      1  C   LIG    1        0.412  -0.491  -0.801  0.00  0.00    +0.113 A 
ATOM      2  N   LIG    1        1.048  -1.325   0.036  0.00  0.00    -0.232 NA
ATOM      3  C   LIG    1        2.189  -0.733   0.474  0.00  0.00    +0.089 A 
ATOM      4  C   LIG    1        3.160  -1.185   1.334  0.00  0.00    +0.030 A 
ATOM      5  C   LIG    1        4.220  -0.322   1.581  0.00  0.00    +0.002 A 
ATOM      6  C   LIG    1        4.289   0.924   0.991  0.00  0.00    +0.002 A 
ATOM      7  C   LIG    1        3.294   1.315   0.147  0.00  0.00    +0.028 A 
ATOM      8  C   LIG    1        2.225   0.500  -0.131  0.00  0.00    +0.066 A 
ATOM      9  N   LIG    1        1.134   0.635  -0.906  0.00  0.00    -0.342 N 
ATOM     10  H   LIG    1        0.890   1.482  -1.496  0.00  0.00    +0.167 HD
ENDROOT
BRANCH   1  11
ATOM     11  C   LIG    1       -0.851  -0.774  -1.476  0.00  0.00    +0.109 C 
BRANCH  11  12
ATOM     12  C   LIG    1       -2.034  -0.341  -0.671  0.00  0.00    -0.040 A 
ATOM     13  C   LIG    1       -2.632  -1.200   0.228  0.00  0.00    +0.004 A 
ATOM     14  C   LIG    1       -3.724  -0.837   0.988  0.00  0.00    +0.000 A 
ATOM     15  C   LIG    1       -4.265   0.426   0.871  0.00  0.00    +0.000 A 
ATOM     16  C   LIG    1       -3.670   1.292  -0.029  0.00  0.00    +0.000 A 
ATOM     17  C   LIG    1       -2.574   0.922  -0.789  0.00  0.00    +0.004 A 
ENDBRANCH  11  12
ENDBRANCH   1  11
TORSDOF 2
