REMARK  Name = molecules/YTPJKQPMTSNTGI-ZDUSSCGKSA-N.pdb
REMARK                            x       y       z     vdW  Elec       q    Type
REMARK                         _______ _______ _______ _____ _____    ______ ____
ROOT
ATOM      1  C   LIG    1       -1.987  -0.270   0.385  0.00  0.00    +0.262 C 
ENDROOT
BRANCH   1   2
ATOM      2  O   LIG    1       -3.250   0.182   0.169  0.00  0.00    -0.489 OA
BRANCH   2   3
ATOM      3  C   LIG    1       -4.138   0.160  -0.843  0.00  0.00    +0.135 A 
ATOM      4  C   LIG    1       -5.378   0.799  -0.622  0.00  0.00    +0.100 A 
ATOM      5  C   LIG    1       -6.293   0.782  -1.641  0.00  0.00    +0.018 A 
ATOM      6  C   LIG    1       -6.037   0.171  -2.848  0.00  0.00    +0.001 A 
ATOM      7  C   LIG    1       -4.841  -0.444  -3.055  0.00  0.00    +0.004 A 
ATOM      8  C   LIG    1       -3.897  -0.446  -2.050  0.00  0.00    +0.046 A 
BRANCH   4   9
ATOM      9  C   LIG    1       -5.623   1.437   0.661  0.00  0.00    +0.340 C 
ATOM     10  O   LIG    1       -6.709   2.018   0.908  0.00  0.00    -0.245 OA
BRANCH   9  11
ATOM     11  O   LIG    1       -4.651   1.414   1.649  0.00  0.00    -0.477 OA
ATOM     12  H   LIG    1       -4.685   2.006   2.462  0.00  0.00    +0.295 HD
ENDBRANCH   9  11
ENDBRANCH   4   9
ENDBRANCH   2   3
ENDBRANCH   1   2
BRANCH   1  13
ATOM     13  C   LIG    1       -0.967   0.358  -0.516  0.00  0.00    +0.177 C 
BRANCH  13  14
ATOM     14  O   LIG    1       -1.012   1.742  -0.278  0.00  0.00    -0.386 OA
ATOM     15  H   LIG    1       -0.517   1.900   0.564  0.00  0.00    +0.210 HD
ENDBRANCH  13  14
BRANCH  13  16
ATOM     16  C   LIG    1        0.418  -0.145  -0.082  0.00  0.00    +0.194 C 
BRANCH  16  17
ATOM     17  O   LIG    1        0.546   0.144   1.268  0.00  0.00    -0.377 OA
BRANCH  17  18
ATOM     18  C   LIG    1        1.755  -0.264   1.812  0.00  0.00    +0.160 C 
BRANCH  18  19
ATOM     19  C   LIG    1        2.957   0.379   1.158  0.00  0.00    +0.028 C 
BRANCH  19  20
ATOM     20  C   LIG    1        4.210  -0.149   1.851  0.00  0.00    +0.002 C 
BRANCH  20  21
ATOM     21  C   LIG    1        5.458   0.449   1.252  0.00  0.00    -0.000 C 
BRANCH  21  22
ATOM     22  C   LIG    1        5.615   0.145  -0.209  0.00  0.00    -0.003 C 
ATOM     23  C   LIG    1        5.694  -1.323  -0.510  0.00  0.00    +0.004 C 
ENDBRANCH  21  22
ENDBRANCH  20  21
ENDBRANCH  19  20
ENDBRANCH  18  19
ENDBRANCH  17  18
ENDBRANCH  16  17
ENDBRANCH  13  16
ENDBRANCH   1  13
TORSDOF 13
