REMARK  Name = molecules/YUOZKOLALXNELS-SQVYRKCQSA-N.pdb
REMARK                            x       y       z     vdW  Elec       q    Type
REMARK                         _______ _______ _______ _____ _____    ______ ____
ROOT
ATOM      1  C   LIG    1       -0.914   1.924   0.528  0.00  0.00    +0.062 C 
ATOM      2  C   LIG    1       -0.705   0.445   0.559  0.00  0.00    +0.010 C 
ATOM      3  C   LIG    1       -1.963  -0.241   0.084  0.00  0.00    +0.002 C 
ATOM      4  C   LIG    1       -3.156  -0.037   0.937  0.00  0.00    +0.007 C 
ATOM      5  C   LIG    1       -4.038  -1.227   0.543  0.00  0.00    +0.035 C 
ATOM      6  C   LIG    1       -3.159  -2.215  -0.165  0.00  0.00    +0.069 C 
ATOM      7  C   LIG    1       -3.409  -2.327  -1.631  0.00  0.00    +0.042 C 
ATOM      8  C   LIG    1       -1.767  -1.737   0.168  0.00  0.00    -0.000 C 
ATOM      9  C   LIG    1       -1.472  -2.225   1.558  0.00  0.00    +0.014 C 
ATOM     10  C   LIG    1       -0.742  -2.108  -0.844  0.00  0.00    +0.010 C 
ATOM     11  C   LIG    1        0.586  -1.486  -0.383  0.00  0.00    +0.005 C 
ATOM     12  C   LIG    1        0.474  -0.018  -0.229  0.00  0.00    +0.004 C 
ATOM     13  C   LIG    1        1.674   0.633   0.356  0.00  0.00    +0.005 C 
ATOM     14  C   LIG    1        1.617   0.567   1.876  0.00  0.00    +0.017 C 
ATOM     15  C   LIG    1        1.529   2.078  -0.002  0.00  0.00    -0.058 C 
ATOM     16  C   LIG    1        2.369   2.755  -0.758  0.00  0.00    +0.046 C 
ATOM     17  C   LIG    1        3.568   2.101  -1.317  0.00  0.00    +0.157 C 
ATOM     18  C   LIG    1        3.451   0.623  -1.440  0.00  0.00    +0.094 C 
ATOM     19  O   LIG    1        4.542   2.789  -1.629  0.00  0.00    -0.293 OA
ATOM     20  C   LIG    1        3.013   0.155  -0.052  0.00  0.00    +0.072 C 
ATOM     21  C   LIG    1        0.326   2.763   0.544  0.00  0.00    +0.046 C 
ENDROOT
BRANCH   6  22
ATOM     22  O   LIG    1       -3.307  -3.477   0.403  0.00  0.00    -0.388 OA
ATOM     23  H   LIG    1       -3.800  -3.456   1.266  0.00  0.00    +0.210 HD
ENDBRANCH   6  22
BRANCH   1  24
ATOM     24  S   LIG    1       -2.020   2.422  -0.830  0.00  0.00    -0.084 S 
BRANCH  24  25
ATOM     25  C   LIG    1       -2.387   4.154  -0.645  0.00  0.00    +0.187 C 
ATOM     26  C   LIG    1       -1.950   4.984   0.500  0.00  0.00    +0.099 C 
ATOM     27  O   LIG    1       -3.053   4.741  -1.515  0.00  0.00    -0.286 OA
ENDBRANCH  24  25
ENDBRANCH   1  24
BRANCH  20  28
ATOM     28  S   LIG    1        3.312  -1.579   0.241  0.00  0.00    -0.084 S 
BRANCH  28  29
ATOM     29  C   LIG    1        4.950  -2.078  -0.144  0.00  0.00    +0.187 C 
ATOM     30  C   LIG    1        5.369  -3.508   0.011  0.00  0.00    +0.099 C 
ATOM     31  O   LIG    1        5.774  -1.288  -0.540  0.00  0.00    -0.286 OA
ENDBRANCH  28  29
ENDBRANCH  20  28
TORSDOF 5
