REMARK  Name = molecules/YUXIBTJKHLUKBD-UHFFFAOYSA-N.pdb
REMARK                            x       y       z     vdW  Elec       q    Type
REMARK                         _______ _______ _______ _____ _____    ______ ____
ROOT
ATOM      1  C   LIG    1        0.420  -0.032  -0.800  0.00  0.00    +0.132 C 
ENDROOT
BRANCH   1   2
ATOM      2  C   LIG    1        1.838   0.201  -1.168  0.00  0.00    +0.308 C 
ATOM      3  O   LIG    1        2.407  -0.551  -2.000  0.00  0.00    -0.251 OA
BRANCH   2   4
ATOM      4  O   LIG    1        2.600   1.228  -0.635  0.00  0.00    -0.465 OA
BRANCH   4   5
ATOM      5  C   LIG    1        3.941   1.446  -0.984  0.00  0.00    +0.232 C 
BRANCH   5   6
ATOM      6  C   LIG    1        4.836   0.293  -0.683  0.00  0.00    +0.041 C 
BRANCH   6   7
ATOM      7  C   LIG    1        4.868  -0.078   0.774  0.00  0.00    -0.000 C 
ATOM      8  C   LIG    1        5.820  -1.267   0.932  0.00  0.00    +0.004 C 
ENDBRANCH   6   7
ENDBRANCH   5   6
ENDBRANCH   4   5
ENDBRANCH   2   4
ENDBRANCH   1   2
BRANCH   1   9
ATOM      9  C   LIG    1       -0.083   0.976   0.182  0.00  0.00    +0.132 C 
BRANCH   9  10
ATOM     10  C   LIG    1       -1.488   0.698   0.513  0.00  0.00    +0.308 C 
ATOM     11  O   LIG    1       -1.801  -0.148   1.383  0.00  0.00    -0.251 OA
BRANCH  10  12
ATOM     12  O   LIG    1       -2.503   1.373  -0.137  0.00  0.00    -0.465 OA
BRANCH  12  13
ATOM     13  C   LIG    1       -3.847   1.132   0.153  0.00  0.00    +0.232 C 
BRANCH  13  14
ATOM     14  C   LIG    1       -4.267  -0.293  -0.107  0.00  0.00    +0.041 C 
BRANCH  14  15
ATOM     15  C   LIG    1       -5.751  -0.370   0.260  0.00  0.00    -0.000 C 
ATOM     16  C   LIG    1       -6.233  -1.773   0.021  0.00  0.00    +0.004 C 
ENDBRANCH  14  15
ENDBRANCH  13  14
ENDBRANCH  12  13
ENDBRANCH  10  12
ENDBRANCH   9  10
ENDBRANCH   1   9
TORSDOF 11
