REMARK  Name = molecules/YVNQAIFQFWTPLQ-UHFFFAOYSA-M.pdb
REMARK                            x       y       z     vdW  Elec       q    Type
REMARK                         _______ _______ _______ _____ _____    ______ ____
ROOT
ATOM      1  C   LIG    1        0.208   0.053  -1.052  0.00  0.00    +0.064 C 
ENDROOT
BRANCH   1   2
ATOM      2  C   LIG    1       -0.821   1.050  -0.623  0.00  0.00    -0.028 A 
ATOM      3  C   LIG    1       -1.255   1.141   0.673  0.00  0.00    -0.044 A 
ATOM      4  C   LIG    1       -0.734   0.219   1.690  0.00  0.00    +0.044 C 
ATOM      5  C   LIG    1       -2.175   2.132   0.980  0.00  0.00    +0.026 A 
ATOM      6  C   LIG    1       -2.640   3.002   0.009  0.00  0.00    +0.030 A 
ATOM      7  C   LIG    1       -2.204   2.909  -1.291  0.00  0.00    +0.023 A 
ATOM      8  C   LIG    1       -1.280   1.909  -1.588  0.00  0.00    +0.007 A 
BRANCH   6   9
ATOM      9  N   LIG    1       -3.576   4.022   0.297  0.00  0.00    -0.326 N 
BRANCH   9  10
ATOM     10  C   LIG    1       -3.114   5.321   0.696  0.00  0.00    +0.102 C 
ATOM     11  C   LIG    1       -1.603   5.404   0.751  0.00  0.00    +0.024 C 
ENDBRANCH   9  10
BRANCH   9  12
ATOM     12  C   LIG    1       -4.978   3.750   0.189  0.00  0.00    +0.140 C 
BRANCH  12  13
ATOM     13  C   LIG    1       -5.786   4.952   0.568  0.00  0.00    -0.028 A 
ATOM     14  C   LIG    1       -6.138   5.056   1.885  0.00  0.00    +0.005 A 
ATOM     15  C   LIG    1       -6.878   6.126   2.312  0.00  0.00    +0.002 A 
ATOM     16  C   LIG    1       -7.254   7.077   1.409  0.00  0.00    +0.029 A 
ATOM     17  C   LIG    1       -6.914   6.997   0.082  0.00  0.00    +0.120 A 
ATOM     18  C   LIG    1       -6.173   5.920  -0.332  0.00  0.00    +0.034 A 
BRANCH  17  19
ATOM     19  S   LIG    1       -7.441   8.265  -0.984  0.00  0.00    +0.140 S 
ATOM     20  O   LIG    1       -8.682   8.908  -0.413  0.00  0.00    -0.043 OA
ATOM     21  O   LIG    1       -6.252   9.477  -0.994  0.00  0.00    -0.140 OA
ATOM     22  O   LIG    1       -7.743   7.793  -2.358  0.00  0.00    -0.140 OA
ENDBRANCH  17  19
ENDBRANCH  12  13
ENDBRANCH   9  12
ENDBRANCH   6   9
ENDBRANCH   1   2
BRANCH   1  29
ATOM     23  C   LIG    1       -1.525  -1.521  -0.783  0.00  0.00    +0.007 A 
ATOM     24  C   LIG    1       -1.975  -2.760  -0.836  0.00  0.00    +0.023 A 
ATOM     25  C   LIG    1       -1.108  -3.851  -1.244  0.00  0.00    +0.030 A 
ATOM     26  C   LIG    1        0.279  -3.530  -1.595  0.00  0.00    +0.026 A 
ATOM     27  C   LIG    1        0.777  -2.275  -1.555  0.00  0.00    -0.044 A 
ATOM     28  C   LIG    1        2.150  -2.008  -1.988  0.00  0.00    +0.044 C 
ATOM     29  C   LIG    1       -0.116  -1.217  -1.141  0.00  0.00    -0.028 A 
BRANCH  25  30
ATOM     30  N   LIG    1       -1.564  -5.057  -1.287  0.00  0.00    -0.326 N 
BRANCH  30  31
ATOM     31  C   LIG    1       -0.662  -6.143  -1.705  0.00  0.00    +0.102 C 
ATOM     32  C   LIG    1       -0.246  -7.039  -0.592  0.00  0.00    +0.024 C 
ENDBRANCH  30  31
BRANCH  30  33
ATOM     33  C   LIG    1       -2.920  -5.398  -0.911  0.00  0.00    +0.140 C 
BRANCH  33  34
ATOM     34  C   LIG    1       -3.031  -6.155   0.355  0.00  0.00    -0.028 A 
ATOM     35  C   LIG    1       -2.615  -5.591   1.555  0.00  0.00    +0.005 A 
ATOM     36  C   LIG    1       -2.704  -6.253   2.758  0.00  0.00    +0.002 A 
ATOM     37  C   LIG    1       -3.216  -7.519   2.830  0.00  0.00    +0.029 A 
ATOM     38  C   LIG    1       -3.635  -8.100   1.657  0.00  0.00    +0.120 A 
ATOM     39  C   LIG    1       -3.551  -7.448   0.447  0.00  0.00    +0.034 A 
BRANCH  38  40
ATOM     40  S   LIG    1       -4.297  -9.711   1.709  0.00  0.00    +0.140 S 
ATOM     41  O   LIG    1       -3.600 -10.569   2.702  0.00  0.00    -0.043 OA
ATOM     42  O   LIG    1       -5.960  -9.670   1.941  0.00  0.00    -0.140 OA
ATOM     43  O   LIG    1       -4.082 -10.354   0.347  0.00  0.00    -0.140 OA
ENDBRANCH  38  40
ENDBRANCH  33  34
ENDBRANCH  30  33
ENDBRANCH  25  30
ENDBRANCH   1  29
BRANCH   1  44
ATOM     44  C   LIG    1        1.573   0.505  -1.220  0.00  0.00    -0.031 A 
ATOM     45  C   LIG    1        2.497   0.168  -0.281  0.00  0.00    +0.007 A 
ATOM     46  C   LIG    1        3.774   0.692  -0.325  0.00  0.00    +0.023 A 
ATOM     47  C   LIG    1        4.198   1.567  -1.297  0.00  0.00    +0.031 A 
ATOM     48  C   LIG    1        3.213   1.880  -2.236  0.00  0.00    +0.023 A 
ATOM     49  C   LIG    1        1.941   1.370  -2.206  0.00  0.00    +0.007 A 
BRANCH  47  50
ATOM     50  N   LIG    1        5.497   2.117  -1.411  0.00  0.00    -0.314 N 
ATOM     51  H   LIG    1        5.516   3.044  -1.961  0.00  0.00    +0.152 HD
BRANCH  50  52
ATOM     52  C   LIG    1        6.698   1.621  -0.912  0.00  0.00    +0.032 A 
ATOM     53  C   LIG    1        6.920   0.308  -0.615  0.00  0.00    +0.027 A 
ATOM     54  C   LIG    1        8.127  -0.147  -0.091  0.00  0.00    +0.047 A 
ATOM     55  C   LIG    1        9.158   0.750   0.147  0.00  0.00    +0.121 A 
ATOM     56  C   LIG    1        8.968   2.066  -0.140  0.00  0.00    +0.047 A 
ATOM     57  C   LIG    1        7.745   2.497  -0.666  0.00  0.00    +0.027 A 
BRANCH  55  58
ATOM     58  O   LIG    1       10.361   0.301   0.669  0.00  0.00    -0.492 OA
BRANCH  58  59
ATOM     59  C   LIG    1       11.466   1.125   0.951  0.00  0.00    +0.225 C 
ATOM     60  C   LIG    1       11.198   2.202   1.959  0.00  0.00    +0.048 C 
ENDBRANCH  58  59
ENDBRANCH  55  58
ENDBRANCH  50  52
ENDBRANCH  47  50
ENDBRANCH   1  44
TORSDOF 17
