REMARK  Name = molecules/YVPXVXANRNDGTA-WDYNHAJCSA-N.pdb
REMARK                            x       y       z     vdW  Elec       q    Type
REMARK                         _______ _______ _______ _____ _____    ______ ____
ROOT
ATOM      1  C   LIG    1       -2.700  -1.270   0.730  0.00  0.00    +0.179 A 
ATOM      2  C   LIG    1       -2.974  -1.747   2.010  0.00  0.00    +0.208 A 
ATOM      3  O   LIG    1       -2.225  -2.494   2.969  0.00  0.00    -0.449 OA
ATOM      4  C   LIG    1       -3.036  -3.034   3.952  0.00  0.00    +0.467 C 
ATOM      5  O   LIG    1       -4.131  -2.172   3.963  0.00  0.00    -0.452 OA
ATOM      6  C   LIG    1       -4.165  -1.573   2.689  0.00  0.00    +0.170 A 
ATOM      7  C   LIG    1       -5.216  -0.889   2.131  0.00  0.00    +0.053 A 
ATOM      8  C   LIG    1       -4.986  -0.396   0.852  0.00  0.00    -0.034 A 
ATOM      9  C   LIG    1       -6.204   0.299   0.297  0.00  0.00    +0.051 C 
ATOM     10  C   LIG    1       -6.106   0.641  -1.146  0.00  0.00    +0.089 C 
ATOM     11  N   LIG    1       -4.717   1.148  -1.273  0.00  0.00    -0.298 NA
ATOM     12  C   LIG    1       -4.612   2.202  -0.336  0.00  0.00    +0.105 C 
ATOM     13  C   LIG    1       -3.813   0.036  -1.179  0.00  0.00    +0.095 C 
ATOM     14  C   LIG    1       -2.600   0.406  -1.908  0.00  0.00    +0.059 C 
ATOM     15  C   LIG    1       -1.668   1.470  -1.365  0.00  0.00    -0.045 A 
ATOM     16  C   LIG    1       -1.541   1.719  -0.014  0.00  0.00    +0.007 A 
ATOM     17  C   LIG    1       -0.512   2.590   0.439  0.00  0.00    +0.046 A 
ATOM     18  C   LIG    1        0.367   3.195  -0.403  0.00  0.00    +0.129 A 
ATOM     19  O   LIG    1        1.442   4.029   0.229  0.00  0.00    -0.452 OA
ATOM     20  C   LIG    1        2.595   3.186   0.575  0.00  0.00    +0.170 A 
ATOM     21  C   LIG    1        2.489   2.015   1.278  0.00  0.00    +0.053 A 
ATOM     22  C   LIG    1        3.669   1.333   1.454  0.00  0.00    -0.042 A 
ATOM     23  C   LIG    1        3.853  -0.082   1.975  0.00  0.00    +0.059 C 
ATOM     24  C   LIG    1        3.486  -0.945   0.848  0.00  0.00    +0.091 C 
ATOM     25  N   LIG    1        4.133  -2.250   1.119  0.00  0.00    -0.298 NA
ATOM     26  C   LIG    1        3.150  -3.143   1.687  0.00  0.00    +0.105 C 
ATOM     27  C   LIG    1        4.664  -2.806  -0.091  0.00  0.00    +0.089 C 
ATOM     28  C   LIG    1        3.819  -2.357  -1.240  0.00  0.00    +0.051 C 
ATOM     29  C   LIG    1        2.389  -2.071  -0.842  0.00  0.00    -0.038 A 
ATOM     30  C   LIG    1        1.404  -2.592  -1.614  0.00  0.00    +0.053 A 
ATOM     31  C   LIG    1        0.120  -2.330  -1.207  0.00  0.00    +0.162 A 
ATOM     32  C   LIG    1       -0.200  -1.570  -0.062  0.00  0.00    +0.170 A 
ATOM     33  C   LIG    1        0.862  -1.044   0.714  0.00  0.00    +0.055 A 
ATOM     34  C   LIG    1        2.150  -1.281   0.344  0.00  0.00    -0.023 A 
ATOM     35  C   LIG    1        4.876   1.853   0.947  0.00  0.00    +0.007 A 
ATOM     36  C   LIG    1        4.974   3.035   0.255  0.00  0.00    +0.050 A 
ATOM     37  C   LIG    1        3.757   3.712   0.074  0.00  0.00    +0.162 A 
ATOM     38  C   LIG    1        0.264   2.993  -1.722  0.00  0.00    +0.046 A 
ATOM     39  C   LIG    1       -0.761   2.123  -2.196  0.00  0.00    +0.007 A 
ATOM     40  C   LIG    1       -3.794  -0.559   0.155  0.00  0.00    +0.019 A 
ATOM     41  O   LIG    1       -1.534  -1.469   0.121  0.00  0.00    -0.448 OA
ENDROOT
BRANCH  31  42
ATOM     42  O   LIG    1       -0.842  -2.905  -2.055  0.00  0.00    -0.491 OA
ATOM     43  C   LIG    1       -0.579  -3.654  -3.181  0.00  0.00    +0.277 C 
ENDBRANCH  31  42
BRANCH  37  44
ATOM     44  O   LIG    1        3.840   4.905  -0.623  0.00  0.00    -0.491 OA
ATOM     45  C   LIG    1        5.080   5.357  -1.093  0.00  0.00    +0.277 C 
ENDBRANCH  37  44
TORSDOF 2
