REMARK  Name = molecules/YVPYQUNUQOZFHG-UHFFFAOYSA-N.pdb
REMARK                            x       y       z     vdW  Elec       q    Type
REMARK                         _______ _______ _______ _____ _____    ______ ____
ROOT
ATOM      1  C   LIG    1       -1.125  -0.249  -0.213  0.00  0.00    +0.063 A 
ATOM      2  C   LIG    1        0.139  -0.654   0.136  0.00  0.00    +0.058 A 
ATOM      3  I   LIG    1        0.565  -2.666   0.543  0.00  0.00    -0.040 I 
ATOM      4  C   LIG    1        1.175   0.259   0.229  0.00  0.00    +0.063 A 
ATOM      5  C   LIG    1        0.954   1.586  -0.026  0.00  0.00    +0.051 A 
ATOM      6  I   LIG    1        2.526   2.988   0.113  0.00  0.00    -0.041 I 
ATOM      7  C   LIG    1       -0.306   2.029  -0.379  0.00  0.00    +0.089 A 
ATOM      8  C   LIG    1       -1.319   1.093  -0.464  0.00  0.00    +0.051 A 
ATOM      9  I   LIG    1       -3.242   1.744  -1.000  0.00  0.00    -0.041 I 
ENDROOT
BRANCH   1  13
ATOM     10  C   LIG    1       -4.065  -2.549   0.661  0.00  0.00    +0.109 C 
ATOM     11  C   LIG    1       -2.993  -1.548   0.801  0.00  0.00    +0.214 C 
ATOM     12  O   LIG    1       -2.848  -1.014   1.941  0.00  0.00    -0.276 OA
ATOM     13  N   LIG    1       -2.170  -1.208  -0.301  0.00  0.00    -0.284 N 
ATOM     14  H   LIG    1       -2.336  -1.681  -1.214  0.00  0.00    +0.155 HD
ENDBRANCH   1  13
BRANCH   4  15
ATOM     15  N   LIG    1        2.485  -0.158   0.590  0.00  0.00    -0.284 N 
ATOM     16  H   LIG    1        2.724  -0.161   1.602  0.00  0.00    +0.155 HD
ATOM     17  C   LIG    1        3.463  -0.561  -0.325  0.00  0.00    +0.214 C 
ATOM     18  C   LIG    1        4.792  -0.977   0.140  0.00  0.00    +0.109 C 
ATOM     19  O   LIG    1        3.206  -0.568  -1.542  0.00  0.00    -0.276 OA
ENDBRANCH   4  15
BRANCH   7  20
ATOM     20  C   LIG    1       -0.524   3.436  -0.646  0.00  0.00    +0.339 C 
ATOM     21  O   LIG    1        0.426   4.254  -0.558  0.00  0.00    -0.245 OA
BRANCH  20  22
ATOM     22  O   LIG    1       -1.796   3.882  -1.003  0.00  0.00    -0.477 OA
ATOM     23  H   LIG    1       -2.286   4.417  -0.291  0.00  0.00    +0.295 HD
ENDBRANCH  20  22
ENDBRANCH   7  20
TORSDOF 4
