REMARK  Name = molecules/YVWGMAFXEJHFRO-UHFFFAOYSA-N.pdb
REMARK                            x       y       z     vdW  Elec       q    Type
REMARK                         _______ _______ _______ _____ _____    ______ ____
ROOT
ATOM      1  C   LIG    1       -0.101  -0.677  -0.242  0.00  0.00    +0.317 C 
ATOM      2  F   LIG    1       -0.194  -1.806   0.524  0.00  0.00    -0.199 F 
ATOM      3  F   LIG    1       -0.299  -1.017  -1.544  0.00  0.00    -0.199 F 
ENDROOT
BRANCH   1   5
ATOM      4  F   LIG    1       -1.090   1.440  -0.593  0.00  0.00    -0.203 F 
ATOM      5  C   LIG    1       -1.175   0.315   0.202  0.00  0.00    +0.410 C 
ATOM      6  F   LIG    1       -0.911   0.728   1.502  0.00  0.00    -0.203 F 
ENDBRANCH   1   5
BRANCH   1   7
ATOM      7  C   LIG    1        1.235  -0.002   0.006  0.00  0.00    +0.161 C 
ATOM      8 BR   LIG    1        1.401   1.628  -0.987  0.00  0.00    -0.085 Br
ENDBRANCH   1   7
TORSDOF 2
