REMARK  Name = molecules/YWGDOWXRIALTES-NRFANRHFSA-N.pdb
REMARK                            x       y       z     vdW  Elec       q    Type
REMARK                         _______ _______ _______ _____ _____    ______ ____
ROOT
ATOM      1  C   LIG    1       -2.156   0.413   0.171  0.00  0.00    +0.197 C 
ENDROOT
BRANCH   1   2
ATOM      2  C   LIG    1       -3.214   0.445  -0.864  0.00  0.00    -0.013 A 
ATOM      3  C   LIG    1       -3.799  -0.729  -1.287  0.00  0.00    +0.008 A 
ATOM      4  C   LIG    1       -4.774  -0.649  -2.246  0.00  0.00    +0.020 A 
ATOM      5  C   LIG    1       -5.164   0.576  -2.779  0.00  0.00    +0.041 A 
ATOM      6  C   LIG    1       -4.578   1.756  -2.357  0.00  0.00    +0.020 A 
ATOM      7 CL   LIG    1       -6.403   0.611  -3.988  0.00  0.00    -0.084 Cl
ATOM      8  C   LIG    1       -3.594   1.659  -1.387  0.00  0.00    +0.008 A 
ENDBRANCH   1   2
BRANCH   1   9
ATOM      9  C   LIG    1       -2.850   0.005   1.450  0.00  0.00    +0.074 A 
ATOM     10  C   LIG    1       -3.121   0.894   2.446  0.00  0.00    +0.026 A 
ATOM     11  C   LIG    1       -3.763   0.374   3.574  0.00  0.00    +0.003 A 
ATOM     12  C   LIG    1       -4.094  -0.962   3.653  0.00  0.00    +0.020 A 
ATOM     13  C   LIG    1       -3.796  -1.833   2.607  0.00  0.00    +0.111 A 
ATOM     14  N   LIG    1       -3.178  -1.296   1.542  0.00  0.00    -0.257 NA
ENDBRANCH   1   9
BRANCH   1  15
ATOM     15  O   LIG    1       -1.210  -0.579  -0.046  0.00  0.00    -0.363 OA
BRANCH  15  16
ATOM     16  C   LIG    1        0.074  -0.146  -0.112  0.00  0.00    +0.122 C 
ATOM     17  C   LIG    1        0.950  -0.656   1.043  0.00  0.00    +0.047 C 
ATOM     18  C   LIG    1        2.282  -0.017   0.873  0.00  0.00    +0.087 C 
ATOM     19  N   LIG    1        2.939  -0.420  -0.384  0.00  0.00    -0.302 NA
ATOM     20  C   LIG    1        1.960  -1.261  -1.118  0.00  0.00    +0.087 C 
ATOM     21  C   LIG    1        0.782  -0.368  -1.430  0.00  0.00    +0.047 C 
BRANCH  19  22
ATOM     22  C   LIG    1        4.094  -1.244  -0.061  0.00  0.00    +0.085 C 
BRANCH  22  23
ATOM     23  C   LIG    1        5.220  -0.450   0.445  0.00  0.00    +0.026 C 
BRANCH  23  24
ATOM     24  C   LIG    1        5.899   0.502  -0.463  0.00  0.00    +0.121 C 
BRANCH  24  25
ATOM     25  C   LIG    1        5.192   1.601  -1.061  0.00  0.00    +0.305 C 
ATOM     26  O   LIG    1        4.013   1.912  -0.893  0.00  0.00    -0.251 OA
BRANCH  25  27
ATOM     27  O   LIG    1        5.896   2.455  -1.956  0.00  0.00    -0.481 OA
ATOM     28  H   LIG    1        5.886   3.463  -1.776  0.00  0.00    +0.295 HD
ENDBRANCH  25  27
ENDBRANCH  24  25
ENDBRANCH  23  24
ENDBRANCH  22  23
ENDBRANCH  19  22
ENDBRANCH  15  16
ENDBRANCH   1  15
TORSDOF 9
