REMARK  Name = molecules/YWPHCCPCQOJSGZ-NSHDSACASA-N.pdb
REMARK                            x       y       z     vdW  Elec       q    Type
REMARK                         _______ _______ _______ _____ _____    ______ ____
ROOT
ATOM      1  C   LIG    1       -2.392  -0.213   0.001  0.00  0.00    +0.162 A 
ATOM      2  C   LIG    1       -1.141  -0.796   0.296  0.00  0.00    +0.162 A 
ATOM      3  C   LIG    1       -0.972  -2.096  -0.110  0.00  0.00    +0.049 A 
ATOM      4  C   LIG    1       -1.977  -2.808  -0.779  0.00  0.00    +0.004 A 
ATOM      5  C   LIG    1       -3.184  -2.209  -1.052  0.00  0.00    +0.004 A 
ATOM      6  C   LIG    1       -3.376  -0.906  -0.653  0.00  0.00    +0.049 A 
ENDROOT
BRANCH   1   7
ATOM      7  O   LIG    1       -2.596   1.107   0.401  0.00  0.00    -0.489 OA
BRANCH   7   9
ATOM      8  C   LIG    1       -3.830   3.150   0.647  0.00  0.00    +0.048 C 
ATOM      9  C   LIG    1       -3.820   1.711   0.125  0.00  0.00    +0.226 C 
ENDBRANCH   7   9
ENDBRANCH   1   7
BRANCH   2  10
ATOM     10  O   LIG    1       -0.218  -0.048   0.942  0.00  0.00    -0.486 OA
BRANCH  10  11
ATOM     11  C   LIG    1        1.063  -0.242   1.362  0.00  0.00    +0.262 C 
BRANCH  11  12
ATOM     12  C   LIG    1        2.108  -0.500   0.299  0.00  0.00    +0.169 C 
ATOM     13  C   LIG    1        3.387  -0.818   0.984  0.00  0.00    +0.116 C 
ATOM     14  N   LIG    1        4.576  -0.554   0.274  0.00  0.00    -0.311 NA
ATOM     15  H   LIG    1        5.173  -1.388   0.083  0.00  0.00    +0.122 HD
ATOM     16  C   LIG    1        4.484   0.354  -0.814  0.00  0.00    +0.109 C 
ATOM     17  C   LIG    1        3.322   1.262  -0.599  0.00  0.00    +0.175 C 
ATOM     18  O   LIG    1        2.122   0.599  -0.524  0.00  0.00    -0.371 OA
ENDBRANCH  11  12
ENDBRANCH  10  11
ENDBRANCH   2  10
TORSDOF 5
