REMARK  Name = molecules/YWQGBCXVCXMSLJ-HXUWFJFHSA-N.pdb
REMARK                            x       y       z     vdW  Elec       q    Type
REMARK                         _______ _______ _______ _____ _____    ______ ____
ROOT
ATOM      1  C   LIG    1       -0.582   0.490  -0.905  0.00  0.00    +0.122 A 
ATOM      2  C   LIG    1       -0.129  -0.223   0.181  0.00  0.00    +0.046 A 
ATOM      3  C   LIG    1        0.988  -1.063   0.117  0.00  0.00    +0.007 A 
ATOM      4  C   LIG    1        1.694  -1.216  -1.056  0.00  0.00    -0.043 A 
ATOM      5  C   LIG    1        1.257  -0.511  -2.157  0.00  0.00    +0.007 A 
ATOM      6  C   LIG    1        0.158   0.313  -2.085  0.00  0.00    +0.046 A 
ENDROOT
BRANCH   1   7
ATOM      7  O   LIG    1       -1.649   1.327  -0.946  0.00  0.00    -0.475 OA
BRANCH   7   8
ATOM      8  C   LIG    1       -2.566   1.735  -0.021  0.00  0.00    +0.203 C 
ATOM      9  C   LIG    1       -3.595   2.599  -0.795  0.00  0.00    +0.068 C 
BRANCH   8  10
ATOM     10  C   LIG    1       -2.058   2.574   1.112  0.00  0.00    +0.056 C 
ATOM     11  C   LIG    1       -3.160   2.965   2.073  0.00  0.00    +0.008 C 
ENDBRANCH   8  10
BRANCH   8  12
ATOM     12  C   LIG    1       -3.320   0.580   0.529  0.00  0.00    +0.351 C 
ATOM     13  O   LIG    1       -4.208   0.788   1.424  0.00  0.00    -0.246 OA
BRANCH  12  14
ATOM     14  O   LIG    1       -3.143  -0.733   0.152  0.00  0.00    -0.462 OA
BRANCH  14  15
ATOM     15  C   LIG    1       -3.926  -1.780   0.747  0.00  0.00    +0.229 C 
ATOM     16  C   LIG    1       -3.559  -3.110   0.182  0.00  0.00    +0.048 C 
ENDBRANCH  14  15
ENDBRANCH  12  14
ENDBRANCH   8  12
ENDBRANCH   7   8
ENDBRANCH   1   7
BRANCH   4  17
ATOM     17  C   LIG    1        2.884  -2.110  -1.129  0.00  0.00    +0.070 C 
BRANCH  17  18
ATOM     18  C   LIG    1        4.095  -1.338  -0.799  0.00  0.00    -0.043 A 
ATOM     19  C   LIG    1        4.547  -1.233   0.498  0.00  0.00    +0.005 A 
ATOM     20  C   LIG    1        5.679  -0.514   0.822  0.00  0.00    +0.020 A 
ATOM     21  C   LIG    1        6.398   0.130  -0.163  0.00  0.00    +0.041 A 
ATOM     22 CL   LIG    1        7.844   1.057   0.195  0.00  0.00    -0.084 Cl
ATOM     23  C   LIG    1        5.957   0.033  -1.464  0.00  0.00    +0.020 A 
ATOM     24  C   LIG    1        4.820  -0.692  -1.770  0.00  0.00    +0.005 A 
ENDBRANCH  17  18
ENDBRANCH   4  17
TORSDOF 8
