REMARK  Name = molecules/YWXYYJSYQOXTPL-SLPGGIOYSA-N.pdb
REMARK                            x       y       z     vdW  Elec       q    Type
REMARK                         _______ _______ _______ _____ _____    ______ ____
ROOT
ATOM      1  C   LIG    1        1.348  -0.219   0.074  0.00  0.00    +0.265 C 
ATOM      2  C   LIG    1       -0.032   0.267   0.471  0.00  0.00    +0.195 C 
ATOM      3  C   LIG    1       -0.876  -0.963   0.129  0.00  0.00    +0.181 C 
ATOM      4  C   LIG    1       -2.236  -0.354  -0.036  0.00  0.00    +0.171 C 
ATOM      5  C   LIG    1       -1.916   1.061  -0.438  0.00  0.00    +0.194 C 
ATOM      6  O   LIG    1       -0.294  -1.361  -1.060  0.00  0.00    -0.367 OA
ATOM      7  O   LIG    1       -0.535   1.198  -0.404  0.00  0.00    -0.367 OA
ATOM      8  C   LIG    1        1.053  -1.501  -0.656  0.00  0.00    +0.210 C 
ENDROOT
BRANCH   4   9
ATOM      9  O   LIG    1       -2.848  -0.348   1.228  0.00  0.00    -0.387 OA
ATOM     10  H   LIG    1       -2.480   0.435   1.746  0.00  0.00    +0.210 HD
ENDBRANCH   4   9
BRANCH   1  11
ATOM     11  O   LIG    1        1.996   0.738  -0.724  0.00  0.00    -0.343 OA
BRANCH  11  12
ATOM     12  N   LIG    1        3.163   1.296  -0.260  0.00  0.00    +0.218 N 
ATOM     13  O   LIG    1        3.907   0.706   0.533  0.00  0.00    -0.090 OA
ATOM     14  O   LIG    1        3.551   2.557  -0.671  0.00  0.00    -0.090 OA
ENDBRANCH  11  12
ENDBRANCH   1  11
TORSDOF 3
