REMARK  Name = molecules/YXKTVDFXDRQTKV-HNNXBMFYSA-N.pdb
REMARK                            x       y       z     vdW  Elec       q    Type
REMARK                         _______ _______ _______ _____ _____    ______ ____
ROOT
ATOM      1  C   LIG    1       -0.319  -1.099  -0.179  0.00  0.00    +0.058 C 
ATOM      2  C   LIG    1       -0.020  -0.260   1.036  0.00  0.00    +0.024 C 
ENDROOT
BRANCH   1   3
ATOM      3  N   LIG    1        0.783  -1.699  -0.809  0.00  0.00    -0.298 NA
ATOM      4  C   LIG    1        0.822  -3.108  -0.815  0.00  0.00    +0.105 C 
BRANCH   3   5
ATOM      5  C   LIG    1        1.694  -0.968  -1.555  0.00  0.00    +0.119 C 
BRANCH   5   6
ATOM      6  C   LIG    1        2.456   0.103  -0.937  0.00  0.00    -0.033 A 
ATOM      7  C   LIG    1        3.581  -0.171  -0.191  0.00  0.00    +0.005 A 
ATOM      8  C   LIG    1        4.342   0.802   0.417  0.00  0.00    +0.000 A 
ATOM      9  C   LIG    1        3.970   2.123   0.279  0.00  0.00    +0.000 A 
ATOM     10  C   LIG    1        2.849   2.441  -0.461  0.00  0.00    +0.000 A 
ATOM     11  C   LIG    1        2.104   1.446  -1.060  0.00  0.00    +0.005 A 
ENDBRANCH   5   6
ENDBRANCH   3   5
ENDBRANCH   1   3
BRANCH   1  12
ATOM     12  C   LIG    1       -1.284  -0.447  -1.143  0.00  0.00    +0.053 C 
BRANCH  12  13
ATOM     13  C   LIG    1       -2.439   0.176  -0.448  0.00  0.00    -0.046 A 
ATOM     14  C   LIG    1       -2.485   1.491  -0.042  0.00  0.00    +0.004 A 
ATOM     15  C   LIG    1       -3.567   2.060   0.596  0.00  0.00    +0.000 A 
ATOM     16  C   LIG    1       -4.678   1.288   0.854  0.00  0.00    +0.000 A 
ATOM     17  C   LIG    1       -4.664  -0.048   0.457  0.00  0.00    +0.000 A 
ATOM     18  C   LIG    1       -3.574  -0.599  -0.180  0.00  0.00    +0.004 A 
ENDBRANCH  12  13
ENDBRANCH   1  12
TORSDOF 5
