REMARK  Name = molecules/YXSLJKQTIDHPOT-LJCJQEJUSA-N.pdb
REMARK                            x       y       z     vdW  Elec       q    Type
REMARK                         _______ _______ _______ _____ _____    ______ ____
ROOT
ATOM      1  C   LIG    1        0.035  -2.829  -1.613  0.00  0.00    +0.007 C 
ENDROOT
BRANCH   1   2
ATOM      2  C   LIG    1        0.952  -3.936  -1.113  0.00  0.00    +0.041 C 
BRANCH   2   3
ATOM      3  C   LIG    1        1.222  -3.946   0.332  0.00  0.00    +0.232 C 
BRANCH   3   4
ATOM      4  O   LIG    1        1.929  -2.818   0.840  0.00  0.00    -0.465 OA
BRANCH   4   5
ATOM      5  C   LIG    1        3.196  -2.534   0.389  0.00  0.00    +0.305 C 
ATOM      6  O   LIG    1        3.705  -3.273  -0.480  0.00  0.00    -0.251 OA
BRANCH   5   7
ATOM      7  C   LIG    1        3.924  -1.354   0.953  0.00  0.00    +0.102 C 
BRANCH   7   8
ATOM      8  C   LIG    1        5.261  -1.212   0.308  0.00  0.00    -0.063 C 
BRANCH   8   9
ATOM      9  N   LIG    1        6.049  -0.105   0.817  0.00  0.00    +0.384 N 
ATOM     10  C   LIG    1        6.073  -0.133   2.304  0.00  0.00    -0.070 C 
ATOM     11  C   LIG    1        7.042  -1.093   2.880  0.00  0.00    +0.017 C 
ATOM     12  C   LIG    1        7.602  -2.054   1.905  0.00  0.00    -0.044 A 
ATOM     13  C   LIG    1        7.928  -3.371   2.216  0.00  0.00    +0.053 A 
ATOM     14  C   LIG    1        8.426  -4.194   1.232  0.00  0.00    +0.162 A 
ATOM     15  C   LIG    1        8.599  -3.708  -0.056  0.00  0.00    +0.162 A 
ATOM     16  C   LIG    1        8.284  -2.410  -0.389  0.00  0.00    +0.051 A 
ATOM     17  C   LIG    1        7.793  -1.619   0.610  0.00  0.00    -0.053 A 
ATOM     18  C   LIG    1        5.286   1.086   0.527  0.00  0.00    -0.091 C 
ATOM     19  C   LIG    1        7.389  -0.169   0.402  0.00  0.00    -0.030 C 
BRANCH  15  20
ATOM     20  O   LIG    1        9.096  -4.579  -0.984  0.00  0.00    -0.491 OA
ATOM     21  C   LIG    1        9.315  -4.234  -2.327  0.00  0.00    +0.277 C 
ENDBRANCH  15  20
BRANCH  14  22
ATOM     22  O   LIG    1        8.743  -5.501   1.566  0.00  0.00    -0.491 OA
ATOM     23  C   LIG    1        8.618  -6.090   2.818  0.00  0.00    +0.277 C 
ENDBRANCH  14  22
BRANCH  19  24
ATOM     24  C   LIG    1        7.903   0.371  -0.842  0.00  0.00    +0.025 C 
BRANCH  24  25
ATOM     25  C   LIG    1        7.809   1.827  -1.069  0.00  0.00    -0.045 A 
ATOM     26  C   LIG    1        8.806   2.616  -0.455  0.00  0.00    +0.007 A 
ATOM     27  C   LIG    1        8.831   3.979  -0.582  0.00  0.00    +0.049 A 
ATOM     28  C   LIG    1        7.880   4.646  -1.316  0.00  0.00    +0.161 A 
ATOM     29  C   LIG    1        6.898   3.857  -1.919  0.00  0.00    +0.162 A 
ATOM     30  C   LIG    1        6.877   2.492  -1.791  0.00  0.00    +0.053 A 
BRANCH  29  31
ATOM     31  O   LIG    1        5.954   4.566  -2.654  0.00  0.00    -0.491 OA
ATOM     32  C   LIG    1        4.874   3.999  -3.338  0.00  0.00    +0.277 C 
ENDBRANCH  29  31
BRANCH  28  33
ATOM     33  O   LIG    1        7.921   6.012  -1.430  0.00  0.00    -0.491 OA
ATOM     34  C   LIG    1        8.903   6.805  -0.822  0.00  0.00    +0.277 C 
ENDBRANCH  28  33
ENDBRANCH  24  25
ENDBRANCH  19  24
ENDBRANCH   8   9
ENDBRANCH   7   8
ENDBRANCH   5   7
ENDBRANCH   4   5
ENDBRANCH   3   4
ENDBRANCH   2   3
ENDBRANCH   1   2
BRANCH   1  35
ATOM     35  C   LIG    1       -1.301  -2.960  -0.964  0.00  0.00    +0.041 C 
BRANCH  35  36
ATOM     36  C   LIG    1       -2.381  -2.067  -1.374  0.00  0.00    +0.232 C 
BRANCH  36  37
ATOM     37  O   LIG    1       -2.341  -0.718  -1.262  0.00  0.00    -0.465 OA
BRANCH  37  38
ATOM     38  C   LIG    1       -2.211   0.016  -0.105  0.00  0.00    +0.305 C 
ATOM     39  O   LIG    1       -2.086  -0.631   0.966  0.00  0.00    -0.251 OA
BRANCH  38  40
ATOM     40  C   LIG    1       -2.232   1.526  -0.150  0.00  0.00    +0.102 C 
BRANCH  40  41
ATOM     41  C   LIG    1       -3.565   2.096  -0.472  0.00  0.00    -0.063 C 
BRANCH  41  51
ATOM     42  C   LIG    1       -5.359   0.621   0.165  0.00  0.00    -0.030 C 
ATOM     43  C   LIG    1       -6.530   0.509   1.075  0.00  0.00    -0.053 A 
ATOM     44  C   LIG    1       -7.183   1.602   1.564  0.00  0.00    -0.044 A 
ATOM     45  C   LIG    1       -8.274   1.433   2.424  0.00  0.00    +0.053 A 
ATOM     46  C   LIG    1       -8.691   0.173   2.777  0.00  0.00    +0.162 A 
ATOM     47  C   LIG    1       -8.036  -0.937   2.286  0.00  0.00    +0.162 A 
ATOM     48  C   LIG    1       -6.741   2.944   1.194  0.00  0.00    +0.017 C 
ATOM     49  C   LIG    1       -5.499   3.013   0.406  0.00  0.00    -0.070 C 
ATOM     50  C   LIG    1       -6.960  -0.743   1.437  0.00  0.00    +0.051 A 
ATOM     51  N   LIG    1       -4.658   1.824   0.400  0.00  0.00    +0.384 N 
ATOM     52  C   LIG    1       -4.194   1.723   1.805  0.00  0.00    -0.091 C 
BRANCH  47  53
ATOM     53  O   LIG    1       -8.497  -2.192   2.673  0.00  0.00    -0.491 OA
ATOM     54  C   LIG    1       -7.773  -3.300   2.131  0.00  0.00    +0.277 C 
ENDBRANCH  47  53
BRANCH  46  55
ATOM     55  O   LIG    1       -9.791   0.012   3.644  0.00  0.00    -0.491 OA
ATOM     56  C   LIG    1      -10.487   1.110   4.166  0.00  0.00    +0.277 C 
ENDBRANCH  46  55
BRANCH  42  57
ATOM     57  C   LIG    1       -5.710   0.157  -1.172  0.00  0.00    +0.025 C 
BRANCH  57  58
ATOM     58  C   LIG    1       -6.814   0.791  -1.895  0.00  0.00    -0.045 A 
ATOM     59  C   LIG    1       -8.078   0.227  -1.771  0.00  0.00    +0.053 A 
ATOM     60  C   LIG    1       -9.196   0.703  -2.413  0.00  0.00    +0.162 A 
ATOM     61  C   LIG    1       -9.026   1.805  -3.223  0.00  0.00    +0.161 A 
ATOM     62  C   LIG    1       -7.783   2.382  -3.361  0.00  0.00    +0.049 A 
ATOM     63  C   LIG    1       -6.675   1.888  -2.707  0.00  0.00    +0.007 A 
BRANCH  61  64
ATOM     64  O   LIG    1      -10.179   2.272  -3.872  0.00  0.00    -0.491 OA
ATOM     65  C   LIG    1      -10.029   3.425  -4.720  0.00  0.00    +0.277 C 
ENDBRANCH  61  64
BRANCH  60  66
ATOM     66  O   LIG    1      -10.445   0.088  -2.246  0.00  0.00    -0.491 OA
ATOM     67  C   LIG    1      -10.518  -1.047  -1.394  0.00  0.00    +0.277 C 
ENDBRANCH  60  66
ENDBRANCH  57  58
ENDBRANCH  42  57
ENDBRANCH  41  51
ENDBRANCH  40  41
ENDBRANCH  38  40
ENDBRANCH  37  38
ENDBRANCH  36  37
ENDBRANCH  35  36
ENDBRANCH   1  35
TORSDOF 26
