REMARK  Name = molecules/YZMCKZRAOLZXAZ-UHFFFAOYSA-N.pdb
REMARK                            x       y       z     vdW  Elec       q    Type
REMARK                         _______ _______ _______ _____ _____    ______ ____
ROOT
ATOM      1  S   LIG    1       -0.899   1.584  -1.820  0.00  0.00    +0.073 S 
ATOM      2  O   LIG    1       -0.446   2.912  -1.230  0.00  0.00    -0.150 OA
ATOM      3  O   LIG    1       -1.634   1.831  -3.119  0.00  0.00    -0.150 OA
ENDROOT
BRANCH   1   4
ATOM      4  C   LIG    1       -1.966   0.755  -0.736  0.00  0.00    +0.109 A 
ATOM      5  C   LIG    1       -2.087   1.155   0.564  0.00  0.00    +0.030 A 
ATOM      6  C   LIG    1       -2.971   0.505   1.421  0.00  0.00    +0.024 A 
ATOM      7  C   LIG    1       -3.735  -0.545   0.975  0.00  0.00    +0.025 A 
ATOM      8  C   LIG    1       -3.586  -0.919  -0.339  0.00  0.00    +0.024 A 
ATOM      9  C   LIG    1       -2.720  -0.296  -1.209  0.00  0.00    +0.030 A 
BRANCH   7  10
ATOM     10  N   LIG    1       -4.643  -1.219   1.838  0.00  0.00    -0.358 N 
ATOM     11  H   LIG    1       -4.263  -2.006   2.408  0.00  0.00    +0.142 HD
ATOM     12  H   LIG    1       -5.627  -0.910   1.869  0.00  0.00    +0.142 HD
ENDBRANCH   7  10
ENDBRANCH   1   4
BRANCH   1  13
ATOM     13  N   LIG    1        0.505   0.678  -2.138  0.00  0.00    -0.199 N 
ATOM     14  H   LIG    1        0.704   0.354  -3.151  0.00  0.00    +0.175 HD
BRANCH  13  15
ATOM     15  C   LIG    1        1.484   0.279  -1.207  0.00  0.00    +0.141 A 
ATOM     16  C   LIG    1        1.458   0.628   0.121  0.00  0.00    +0.068 A 
ATOM     17  C   LIG    1        2.454   0.240   1.025  0.00  0.00    +0.044 A 
ATOM     18  C   LIG    1        2.426   0.616   2.459  0.00  0.00    +0.066 C 
ATOM     19  N   LIG    1        3.453  -0.501   0.524  0.00  0.00    -0.237 NA
ATOM     20  C   LIG    1        3.492  -0.852  -0.782  0.00  0.00    +0.128 A 
ATOM     21  C   LIG    1        4.664  -1.686  -1.230  0.00  0.00    +0.088 C 
ATOM     22  N   LIG    1        2.535  -0.474  -1.629  0.00  0.00    -0.216 NA
ENDBRANCH  13  15
ENDBRANCH   1  13
TORSDOF 4
