REMARK  Name = molecules/YZQRAQOSAPWELU-UHFFFAOYSA-O.pdb
REMARK                            x       y       z     vdW  Elec       q    Type
REMARK                         _______ _______ _______ _____ _____    ______ ____
ROOT
ATOM      1  C   LIG    1        0.028  -2.368   0.284  0.00  0.00    +0.045 C 
ATOM      2  C   LIG    1        0.214  -0.957   0.153  0.00  0.00    -0.035 C 
ATOM      3  C   LIG    1        1.475  -0.372   0.140  0.00  0.00    -0.014 C 
ATOM      4  C   LIG    1        2.594  -1.167   0.256  0.00  0.00    +0.079 C 
ATOM      5  N   LIG    1        3.801  -0.568   0.240  0.00  0.00    -0.316 N 
ATOM      6  C   LIG    1        4.959  -1.453   0.366  0.00  0.00    +0.134 C 
ATOM      7  C   LIG    1        3.986   0.756   0.117  0.00  0.00    +0.071 C 
ATOM      8  C   LIG    1        2.894   1.573   0.000  0.00  0.00    +0.006 C 
ATOM      9  C   LIG    1        1.639   1.012   0.011  0.00  0.00    +0.056 C 
ATOM     10  C   LIG    1        0.526   1.831  -0.108  0.00  0.00    -0.033 C 
ATOM     11  C   LIG    1       -0.702   1.236  -0.092  0.00  0.00    +0.048 A 
ATOM     12  N   LIG    1       -1.897   1.868  -0.195  0.00  0.00    -0.354 N 
ATOM     13  C   LIG    1       -2.867   0.976  -0.142  0.00  0.00    +0.048 A 
ATOM     14  C   LIG    1       -2.262  -0.290   0.002  0.00  0.00    +0.011 A 
ATOM     15  C   LIG    1       -3.055  -1.403   0.083  0.00  0.00    +0.056 A 
ATOM     16  C   LIG    1       -4.423  -1.258   0.022  0.00  0.00    +0.118 A 
ATOM     17  C   LIG    1       -5.027  -0.017  -0.120  0.00  0.00    +0.047 A 
ATOM     18  C   LIG    1       -4.245   1.092  -0.201  0.00  0.00    +0.030 A 
ATOM     19  H   LIG    1       -2.072   2.900  -0.302  0.00  0.00    +0.166 HD
ATOM     20  C   LIG    1        0.730   3.295  -0.243  0.00  0.00    +0.042 C 
ATOM     21  C   LIG    1       -0.878  -0.126   0.034  0.00  0.00    +0.011 A 
ENDROOT
BRANCH  16  22
ATOM     22  O   LIG    1       -5.243  -2.354   0.100  0.00  0.00    -0.507 OA
ATOM     23  H   LIG    1       -4.907  -3.304   0.204  0.00  0.00    +0.292 HD
ENDBRANCH  16  22
TORSDOF 1
