REMARK  Name = molecules/YZZCJYJBCUJISI-UHFFFAOYSA-N.pdb
REMARK                            x       y       z     vdW  Elec       q    Type
REMARK                         _______ _______ _______ _____ _____    ______ ____
ROOT
ATOM      1  C   LIG    1        0.140   0.377  -0.419  0.00  0.00    +0.080 C 
ENDROOT
BRANCH   1   2
ATOM      2  C   LIG    1        0.613   1.538  -1.275  0.00  0.00    +0.014 C 
ATOM      3  C   LIG    1        1.265   2.622  -0.487  0.00  0.00    +0.005 C 
ENDBRANCH   1   2
BRANCH   1   4
ATOM      4  C   LIG    1       -0.870   0.864   0.598  0.00  0.00    +0.281 C 
BRANCH   4   5
ATOM      5  O   LIG    1       -1.402  -0.219   1.330  0.00  0.00    -0.351 OA
BRANCH   5   6
ATOM      6  N   LIG    1       -2.337   0.067   2.296  0.00  0.00    +0.217 N 
ATOM      7  O   LIG    1       -2.417  -0.706   3.421  0.00  0.00    -0.090 OA
ATOM      8  O   LIG    1       -3.121   1.023   2.172  0.00  0.00    -0.090 OA
ENDBRANCH   5   6
ENDBRANCH   4   5
ENDBRANCH   1   4
BRANCH   1   9
ATOM      9  C   LIG    1        1.347  -0.236   0.215  0.00  0.00    +0.281 C 
BRANCH   9  10
ATOM     10  O   LIG    1        1.044  -1.357   1.023  0.00  0.00    -0.351 OA
BRANCH  10  11
ATOM     11  N   LIG    1        2.105  -1.976   1.641  0.00  0.00    +0.217 N 
ATOM     12  O   LIG    1        3.140  -1.370   1.994  0.00  0.00    -0.090 OA
ATOM     13  O   LIG    1        2.060  -3.323   1.898  0.00  0.00    -0.090 OA
ENDBRANCH  10  11
ENDBRANCH   9  10
ENDBRANCH   1   9
BRANCH   1  14
ATOM     14  C   LIG    1       -0.560  -0.563  -1.348  0.00  0.00    +0.281 C 
BRANCH  14  15
ATOM     15  O   LIG    1       -1.113  -1.687  -0.703  0.00  0.00    -0.351 OA
BRANCH  15  16
ATOM     16  N   LIG    1       -1.774  -2.599  -1.490  0.00  0.00    +0.217 N 
ATOM     17  O   LIG    1       -1.750  -3.942  -1.309  0.00  0.00    -0.090 OA
ATOM     18  O   LIG    1       -2.461  -2.170  -2.461  0.00  0.00    -0.090 OA
ENDBRANCH  15  16
ENDBRANCH  14  15
ENDBRANCH   1  14
TORSDOF 10
