REMARK  Name = molecules/ZADGGFKUEYIBJC-QXZCWUTFSA-N.pdb
REMARK                            x       y       z     vdW  Elec       q    Type
REMARK                         _______ _______ _______ _____ _____    ______ ____
ROOT
ATOM      1  C   LIG    1       -0.462   0.863   0.446  0.00  0.00    -0.000 C 
ENDROOT
BRANCH   1   2
ATOM      2  C   LIG    1        0.476  -0.141   1.087  0.00  0.00    -0.000 C 
BRANCH   2   3
ATOM      3  C   LIG    1        0.810   0.219   2.499  0.00  0.00    -0.000 C 
BRANCH   3   4
ATOM      4  C   LIG    1        1.462   1.531   2.705  0.00  0.00    -0.002 C 
BRANCH   4   5
ATOM      5  C   LIG    1        2.788   1.734   2.026  0.00  0.00    -0.018 C 
BRANCH   5   6
ATOM      6  C   LIG    1        3.782   0.742   2.525  0.00  0.00    -0.075 C 
BRANCH   6   7
ATOM      7  N   LIG    1        5.102   0.839   2.006  0.00  0.00    +0.383 N 
ATOM      8  C   LIG    1        6.007   1.151   3.136  0.00  0.00    -0.092 C 
ATOM      9  C   LIG    1        5.299   1.895   1.038  0.00  0.00    -0.092 C 
BRANCH   7  10
ATOM     10  C   LIG    1        5.572  -0.388   1.378  0.00  0.00    +0.047 C 
BRANCH  10  11
ATOM     11  C   LIG    1        6.986  -0.245   0.972  0.00  0.00    +0.291 C 
ATOM     12  O   LIG    1        7.556   0.867   1.272  0.00  0.00    -0.253 OA
BRANCH  11  13
ATOM     13  O   LIG    1        7.743  -1.173   0.308  0.00  0.00    -0.462 OA
BRANCH  13  14
ATOM     14  C   LIG    1        9.120  -0.938  -0.057  0.00  0.00    +0.180 C 
ATOM     15  C   LIG    1        9.947  -1.882   0.710  0.00  0.00    +0.048 C 
ATOM     16  C   LIG    1       10.590  -3.017   0.012  0.00  0.00    -0.011 C 
ATOM     17  C   LIG    1       12.047  -2.751  -0.333  0.00  0.00    +0.007 C 
ATOM     18  C   LIG    1        9.842  -3.337  -1.257  0.00  0.00    +0.004 C 
ATOM     19  C   LIG    1        9.921  -2.100  -2.131  0.00  0.00    +0.007 C 
ATOM     20  C   LIG    1        9.166  -0.955  -1.531  0.00  0.00    +0.032 C 
BRANCH  20  21
ATOM     21  C   LIG    1        9.765   0.334  -2.040  0.00  0.00    -0.011 C 
ATOM     22  C   LIG    1       11.154   0.572  -1.504  0.00  0.00    +0.007 C 
ATOM     23  C   LIG    1        8.925   1.530  -1.593  0.00  0.00    +0.007 C 
ENDBRANCH  20  21
ENDBRANCH  13  14
ENDBRANCH  11  13
ENDBRANCH  10  11
ENDBRANCH   7  10
ENDBRANCH   6   7
ENDBRANCH   5   6
ENDBRANCH   4   5
ENDBRANCH   3   4
ENDBRANCH   2   3
ENDBRANCH   1   2
BRANCH   1  24
ATOM     24  C   LIG    1       -1.748   0.996   1.204  0.00  0.00    -0.000 C 
BRANCH  24  25
ATOM     25  C   LIG    1       -2.692   2.000   0.599  0.00  0.00    -0.002 C 
BRANCH  25  26
ATOM     26  C   LIG    1       -3.083   1.572  -0.769  0.00  0.00    -0.018 C 
BRANCH  26  27
ATOM     27  C   LIG    1       -3.998   2.508  -1.478  0.00  0.00    -0.075 C 
BRANCH  27  28
ATOM     28  N   LIG    1       -5.254   2.798  -0.859  0.00  0.00    +0.383 N 
ATOM     29  C   LIG    1       -5.061   3.935   0.079  0.00  0.00    -0.092 C 
ATOM     30  C   LIG    1       -6.098   3.357  -1.906  0.00  0.00    -0.092 C 
BRANCH  28  31
ATOM     31  C   LIG    1       -5.926   1.754  -0.203  0.00  0.00    +0.047 C 
BRANCH  31  32
ATOM     32  C   LIG    1       -7.032   1.078  -0.901  0.00  0.00    +0.291 C 
ATOM     33  O   LIG    1       -7.397   1.188  -2.071  0.00  0.00    -0.253 OA
BRANCH  32  34
ATOM     34  O   LIG    1       -7.790   0.179  -0.130  0.00  0.00    -0.462 OA
BRANCH  34  37
ATOM     35  C   LIG    1      -11.274  -0.650  -0.979  0.00  0.00    -0.011 C 
ATOM     36  C   LIG    1      -10.195  -0.123  -0.038  0.00  0.00    +0.048 C 
ATOM     37  C   LIG    1       -8.869  -0.516  -0.667  0.00  0.00    +0.180 C 
ATOM     38  C   LIG    1       -8.691  -2.005  -0.692  0.00  0.00    +0.032 C 
ATOM     39  C   LIG    1       -9.766  -2.533  -1.654  0.00  0.00    +0.007 C 
ATOM     40  C   LIG    1      -12.604  -0.345  -0.343  0.00  0.00    +0.007 C 
ATOM     41  C   LIG    1      -11.151  -2.127  -1.196  0.00  0.00    +0.004 C 
BRANCH  38  42
ATOM     42  C   LIG    1       -8.916  -2.704   0.604  0.00  0.00    -0.011 C 
ATOM     43  C   LIG    1       -7.973  -2.338   1.697  0.00  0.00    +0.007 C 
ATOM     44  C   LIG    1       -8.742  -4.202   0.328  0.00  0.00    +0.007 C 
ENDBRANCH  38  42
ENDBRANCH  34  37
ENDBRANCH  32  34
ENDBRANCH  31  32
ENDBRANCH  28  31
ENDBRANCH  27  28
ENDBRANCH  26  27
ENDBRANCH  25  26
ENDBRANCH  24  25
ENDBRANCH   1  24
TORSDOF 21
