REMARK  Name = molecules/ZAFYATHCZYHLPB-UHFFFAOYSA-N.pdb
REMARK                            x       y       z     vdW  Elec       q    Type
REMARK                         _______ _______ _______ _____ _____    ______ ____
ROOT
ATOM      1  C   LIG    1        1.163   0.455  -0.618  0.00  0.00    +0.093 A 
ATOM      2  C   LIG    1       -0.020   0.847  -0.097  0.00  0.00    +0.060 A 
ATOM      3  N   LIG    1       -0.395   2.064  -0.629  0.00  0.00    -0.302 N 
ATOM      4  C   LIG    1       -1.472   2.836  -0.420  0.00  0.00    +0.096 A 
ATOM      5  C   LIG    1       -1.627   4.029  -1.083  0.00  0.00    -0.034 A 
ATOM      6  C   LIG    1       -2.814   4.913  -0.886  0.00  0.00    +0.045 C 
ATOM      7  C   LIG    1       -0.640   4.417  -1.977  0.00  0.00    +0.008 A 
ATOM      8  C   LIG    1        0.446   3.594  -2.159  0.00  0.00    +0.047 A 
ATOM      9  C   LIG    1        0.583   2.402  -1.486  0.00  0.00    +0.138 A 
ATOM     10  N   LIG    1        1.528   1.444  -1.490  0.00  0.00    -0.228 NA
ENDROOT
BRANCH   1  16
ATOM     11  C   LIG    1        4.177  -1.462   0.296  0.00  0.00    +0.004 A 
ATOM     12  C   LIG    1        3.761  -2.767   0.311  0.00  0.00    -0.050 A 
ATOM     13  C   LIG    1        4.729  -3.836   0.652  0.00  0.00    +0.044 C 
ATOM     14  C   LIG    1        2.437  -3.045   0.002  0.00  0.00    +0.004 A 
ATOM     15  C   LIG    1        1.573  -2.002  -0.312  0.00  0.00    +0.010 A 
ATOM     16  C   LIG    1        1.991  -0.718  -0.323  0.00  0.00    +0.002 A 
ATOM     17  C   LIG    1        3.334  -0.459  -0.008  0.00  0.00    +0.010 A 
ENDBRANCH   1  16
BRANCH   2  18
ATOM     18  C   LIG    1       -0.869   0.130   0.871  0.00  0.00    +0.151 C 
BRANCH  18  19
ATOM     19  C   LIG    1       -1.766  -0.860   0.200  0.00  0.00    +0.221 C 
ATOM     20  N   LIG    1       -2.609  -1.674   0.988  0.00  0.00    -0.307 N 
ATOM     21  C   LIG    1       -2.641  -1.609   2.426  0.00  0.00    +0.131 C 
ATOM     22  C   LIG    1       -3.496  -2.633   0.330  0.00  0.00    +0.131 C 
ATOM     23  O   LIG    1       -1.795  -0.991  -1.046  0.00  0.00    -0.275 OA
ENDBRANCH  18  19
ENDBRANCH   2  18
TORSDOF 3
