REMARK  Name = molecules/ZAIPMKNFIOOWCQ-UEKVPHQBSA-N.pdb
REMARK                            x       y       z     vdW  Elec       q    Type
REMARK                         _______ _______ _______ _____ _____    ______ ____
ROOT
ATOM      1  O   LIG    1        0.763   2.255   2.043  0.00  0.00    -0.273 OA
ATOM      2  C   LIG    1        1.133   1.096   1.724  0.00  0.00    +0.244 C 
ATOM      3  CA  LIG    1        0.454  -0.226   1.690  0.00  0.00    +0.191 C 
ATOM      4  C   LIG    1        1.842  -0.828   1.707  0.00  0.00    +0.169 C 
ATOM      5  S   LIG    1        2.167  -2.048   0.433  0.00  0.00    -0.131 S 
ATOM      6  C   LIG    1        3.022  -1.211  -0.921  0.00  0.00    +0.103 C 
ATOM      7  C   LIG    1        3.923  -0.153  -0.416  0.00  0.00    -0.034 C 
ATOM      8  CA  LIG    1        3.572   0.627   0.611  0.00  0.00    +0.122 C 
ATOM      9  C   LIG    1        5.230   0.035  -1.056  0.00  0.00    +0.042 C 
ATOM     10  N   LIG    1        2.315   0.460   1.255  0.00  0.00    -0.249 N 
ENDROOT
BRANCH   3  11
ATOM     11  N   LIG    1       -0.333  -0.489   0.532  0.00  0.00    -0.300 N 
ATOM     12  C   LIG    1       -1.662  -0.944   0.653  0.00  0.00    +0.235 C 
ATOM     13  O   LIG    1       -2.145  -1.115   1.793  0.00  0.00    -0.274 OA
ATOM     14  H   LIG    1        0.074  -0.345  -0.409  0.00  0.00    +0.150 HD
BRANCH  12  15
ATOM     15  CA  LIG    1       -2.514  -1.228  -0.523  0.00  0.00    +0.168 C 
BRANCH  15  16
ATOM     16  C   LIG    1       -3.714  -0.355  -0.507  0.00  0.00    -0.022 A 
ATOM     17  C   LIG    1       -4.959  -0.805  -0.120  0.00  0.00    +0.005 A 
ATOM     18  C   LIG    1       -6.034   0.051  -0.125  0.00  0.00    +0.000 A 
ATOM     19  C   LIG    1       -5.926   1.374  -0.509  0.00  0.00    +0.000 A 
ATOM     20  C   LIG    1       -4.665   1.810  -0.895  0.00  0.00    +0.000 A 
ATOM     21  C   LIG    1       -3.573   0.973  -0.898  0.00  0.00    +0.005 A 
ENDBRANCH  15  16
BRANCH  15  22
ATOM     22  N   LIG    1       -1.820  -0.986  -1.770  0.00  0.00    -0.316 NA
ATOM     23  H1  LIG    1       -1.396  -1.860  -2.152  0.00  0.00    +0.119 HD
ATOM     24  H2  LIG    1       -2.430  -0.496  -2.453  0.00  0.00    +0.119 HD
ENDBRANCH  15  22
ENDBRANCH  12  15
ENDBRANCH   3  11
BRANCH   8  25
ATOM     25  C   LIG    1        4.448   1.683   1.087  0.00  0.00    +0.351 C 
ATOM     26  OXT LIG    1        4.128   2.424   2.039  0.00  0.00    -0.244 OA
BRANCH  25  27
ATOM     27  O   LIG    1        5.677   1.919   0.507  0.00  0.00    -0.476 OA
ATOM     28  H   LIG    1        6.494   1.931   1.134  0.00  0.00    +0.295 HD
ENDBRANCH  25  27
ENDBRANCH   8  25
TORSDOF 6
