REMARK  Name = molecules/ZAMACTJOCIFTPJ-UHFFFAOYSA-N.pdb
REMARK                            x       y       z     vdW  Elec       q    Type
REMARK                         _______ _______ _______ _____ _____    ______ ____
ROOT
ATOM      1  C   LIG    1       -1.476   0.626  -0.200  0.00  0.00    +0.125 A 
ATOM      2  C   LIG    1       -2.216  -0.565  -0.066  0.00  0.00    +0.034 A 
ATOM      3  C   LIG    1       -1.613  -1.793  -0.105  0.00  0.00    -0.040 A 
ATOM      4  C   LIG    1       -0.271  -1.843  -0.286  0.00  0.00    +0.012 A 
ATOM      5  C   LIG    1        0.502  -0.698  -0.425  0.00  0.00    -0.015 A 
ATOM      6  C   LIG    1        1.849  -0.840  -0.472  0.00  0.00    +0.012 A 
ATOM      7  C   LIG    1        2.712   0.273  -0.487  0.00  0.00    -0.041 A 
ATOM      8  C   LIG    1        2.079   1.507  -0.446  0.00  0.00    +0.005 A 
ATOM      9  C   LIG    1        0.706   1.665  -0.400  0.00  0.00    +0.011 A 
ATOM     10  C   LIG    1       -0.107   0.577  -0.383  0.00  0.00    +0.009 A 
ENDROOT
BRANCH   3  11
ATOM     11  C   LIG    1       -2.436  -2.950   0.326  0.00  0.00    -0.013 C 
ATOM     12  C   LIG    1       -2.612  -2.632   1.872  0.00  0.00    +0.015 C 
ATOM     13  C   LIG    1       -1.866  -4.283   0.231  0.00  0.00    +0.015 C 
ATOM     14  C   LIG    1       -3.824  -2.868  -0.188  0.00  0.00    +0.015 C 
ENDBRANCH   3  11
BRANCH   7  15
ATOM     15  C   LIG    1        4.173   0.057  -0.378  0.00  0.00    -0.013 C 
ATOM     16  C   LIG    1        4.408  -0.640   0.983  0.00  0.00    +0.015 C 
ATOM     17  C   LIG    1        4.962   1.337  -0.355  0.00  0.00    +0.015 C 
ATOM     18  C   LIG    1        4.738  -0.882  -1.401  0.00  0.00    +0.015 C 
ENDBRANCH   7  15
BRANCH   1  19
ATOM     19  S   LIG    1       -2.275   2.094   0.093  0.00  0.00    +0.113 S 
ATOM     20  O   LIG    1       -1.512   2.737   1.294  0.00  0.00    -0.142 OA
ATOM     21  O   LIG    1       -3.673   1.770   0.710  0.00  0.00    -0.142 OA
BRANCH  19  22
ATOM     22  O   LIG    1       -2.579   3.213  -1.036  0.00  0.00    -0.235 OA
BRANCH  22  23
ATOM     23  C   LIG    1       -2.170   4.491  -0.501  0.00  0.00    +0.190 C 
ATOM     24  C   LIG    1       -3.412   5.296  -0.214  0.00  0.00    +0.036 C 
ENDBRANCH  22  23
ENDBRANCH  19  22
ENDBRANCH   1  19
TORSDOF 5
