REMARK  Name = molecules/ZBAFFZBKCMWUHM-CQSZACIVSA-N.pdb
REMARK                            x       y       z     vdW  Elec       q    Type
REMARK                         _______ _______ _______ _____ _____    ______ ____
ROOT
ATOM      1  N   LIG    1       -1.633  -0.092  -0.321  0.00  0.00    -0.252 N 
ATOM      2  C   LIG    1       -2.385  -1.268  -0.189  0.00  0.00    +0.221 C 
ATOM      3  O   LIG    1       -3.658  -1.167   0.046  0.00  0.00    -0.275 OA
ENDROOT
BRANCH   1   4
ATOM      4  C   LIG    1       -2.399   1.139  -0.178  0.00  0.00    +0.128 A 
ATOM      5  C   LIG    1       -3.211   1.336   0.910  0.00  0.00    +0.044 A 
ATOM      6  C   LIG    1       -3.939   2.472   1.074  0.00  0.00    +0.005 A 
ATOM      7  C   LIG    1       -3.848   3.450   0.105  0.00  0.00    +0.020 A 
ATOM      8  C   LIG    1       -3.038   3.264  -0.989  0.00  0.00    +0.113 A 
ATOM      9  N   LIG    1       -2.337   2.116  -1.100  0.00  0.00    -0.240 NA
ENDBRANCH   1   4
BRANCH   2  10
ATOM     10  C   LIG    1       -1.927  -2.658  -0.284  0.00  0.00    +0.093 C 
ATOM     11  C   LIG    1       -3.108  -3.653  -0.193  0.00  0.00    +0.013 C 
ENDBRANCH   2  10
BRANCH   1  12
ATOM     12  C   LIG    1       -0.220   0.055  -0.575  0.00  0.00    +0.094 C 
ATOM     13  C   LIG    1        0.119  -0.406  -1.950  0.00  0.00    +0.030 C 
BRANCH  12  14
ATOM     14  C   LIG    1        0.664  -0.350   0.545  0.00  0.00    +0.107 C 
BRANCH  14  15
ATOM     15  N   LIG    1        2.015  -0.195   0.322  0.00  0.00    -0.301 NA
ATOM     16  C   LIG    1        2.684   0.896   0.972  0.00  0.00    +0.084 C 
ATOM     17  C   LIG    1        4.167   0.532   1.038  0.00  0.00    +0.015 C 
ATOM     18  C   LIG    1        4.772   0.498  -0.338  0.00  0.00    +0.002 C 
ATOM     19  C   LIG    1        3.704   0.022  -1.301  0.00  0.00    +0.015 C 
ATOM     20  C   LIG    1        2.797  -0.963  -0.533  0.00  0.00    +0.084 C 
ENDBRANCH  14  15
ENDBRANCH  12  14
ENDBRANCH   1  12
TORSDOF 5
