REMARK  Name = molecules/ZBBHBTPTTSWHBA-DEOSSOPVSA-N.pdb
REMARK                            x       y       z     vdW  Elec       q    Type
REMARK                         _______ _______ _______ _____ _____    ______ ____
ROOT
ATOM      1  C   LIG    1       -1.384  -0.316  -1.134  0.00  0.00    +0.065 C 
ATOM      2  C   LIG    1       -2.642  -1.020  -0.856  0.00  0.00    +0.096 C 
ATOM      3  C   LIG    1       -3.825  -0.347  -1.415  0.00  0.00    +0.065 C 
ATOM      4  C   LIG    1       -3.808   0.777  -2.103  0.00  0.00    +0.016 C 
ATOM      5  N   LIG    1       -2.560   1.401  -2.331  0.00  0.00    -0.321 N 
ATOM      6  H   LIG    1       -2.502   2.291  -2.870  0.00  0.00    +0.152 HD
ATOM      7  C   LIG    1       -5.068   1.415  -2.650  0.00  0.00    +0.061 C 
ATOM      8  C   LIG    1       -1.379   0.806  -1.821  0.00  0.00    +0.016 C 
ATOM      9  C   LIG    1       -0.044   1.464  -2.061  0.00  0.00    +0.061 C 
ENDROOT
BRANCH   2  10
ATOM     10  C   LIG    1       -2.787  -1.011   0.653  0.00  0.00    -0.033 A 
ATOM     11  C   LIG    1       -2.845  -2.174   1.369  0.00  0.00    +0.037 A 
ATOM     12  C   LIG    1       -2.977  -2.216   2.739  0.00  0.00    +0.126 A 
ATOM     13  C   LIG    1       -3.055  -1.017   3.438  0.00  0.00    +0.033 A 
ATOM     14  C   LIG    1       -2.997   0.168   2.720  0.00  0.00    +0.003 A 
ATOM     15  C   LIG    1       -2.865   0.178   1.343  0.00  0.00    +0.005 A 
BRANCH  12  16
ATOM     16  N   LIG    1       -3.033  -3.445   3.442  0.00  0.00    +0.056 N 
ATOM     17  O   LIG    1       -3.150  -3.490   4.675  0.00  0.00    -0.126 OA
ATOM     18  O   LIG    1       -2.954  -4.609   2.737  0.00  0.00    -0.126 OA
ENDBRANCH  12  16
ENDBRANCH   2  10
BRANCH   1  19
ATOM     19  C   LIG    1       -0.104  -0.887  -0.627  0.00  0.00    +0.338 C 
ATOM     20  O   LIG    1       -0.220  -1.971   0.025  0.00  0.00    -0.245 OA
BRANCH  19  21
ATOM     21  O   LIG    1        1.119  -0.343  -0.813  0.00  0.00    -0.460 OA
BRANCH  21  22
ATOM     22  C   LIG    1        2.265  -0.977  -0.283  0.00  0.00    +0.248 C 
BRANCH  22  23
ATOM     23  C   LIG    1        3.523  -0.189  -0.618  0.00  0.00    +0.125 C 
BRANCH  23  24
ATOM     24  N   LIG    1        3.413   1.123  -0.057  0.00  0.00    -0.298 NA
ATOM     25  C   LIG    1        3.165   1.019   1.354  0.00  0.00    +0.105 C 
BRANCH  24  26
ATOM     26  C   LIG    1        4.584   1.942  -0.340  0.00  0.00    +0.119 C 
BRANCH  26  27
ATOM     27  C   LIG    1        5.828   1.346   0.210  0.00  0.00    -0.033 A 
ATOM     28  C   LIG    1        6.227   1.675   1.485  0.00  0.00    +0.005 A 
ATOM     29  C   LIG    1        7.388   1.104   1.968  0.00  0.00    +0.000 A 
ATOM     30  C   LIG    1        8.128   0.230   1.200  0.00  0.00    +0.000 A 
ATOM     31  C   LIG    1        7.736  -0.105  -0.079  0.00  0.00    +0.000 A 
ATOM     32  C   LIG    1        6.576   0.466  -0.561  0.00  0.00    +0.005 A 
ENDBRANCH  26  27
ENDBRANCH  24  26
ENDBRANCH  23  24
ENDBRANCH  22  23
ENDBRANCH  21  22
ENDBRANCH  19  21
ENDBRANCH   1  19
BRANCH   3  33
ATOM     33  C   LIG    1       -5.141  -1.005  -1.175  0.00  0.00    +0.337 C 
ATOM     34  O   LIG    1       -5.135  -2.075  -0.517  0.00  0.00    -0.245 OA
BRANCH  33  35
ATOM     35  O   LIG    1       -6.336  -0.537  -1.610  0.00  0.00    -0.465 OA
ATOM     36  C   LIG    1       -7.584  -1.164  -1.380  0.00  0.00    +0.280 C 
ENDBRANCH  33  35
ENDBRANCH   3  33
TORSDOF 11
