REMARK  Name = molecules/ZBIAKUMOEKILTF-UHFFFAOYSA-N.pdb
REMARK                            x       y       z     vdW  Elec       q    Type
REMARK                         _______ _______ _______ _____ _____    ______ ____
ROOT
ATOM      1  N   LIG    1       -0.547   1.042   0.001  0.00  0.00    -0.300 NA
ATOM      2  C   LIG    1        0.389   2.149   0.131  0.00  0.00    +0.100 C 
ATOM      3  C   LIG    1        1.230   1.885   1.322  0.00  0.00    +0.100 C 
ATOM      4  N   LIG    1        2.046   0.686   1.197  0.00  0.00    -0.292 NA
ATOM      5  C   LIG    1        1.415  -0.395   0.530  0.00  0.00    +0.100 C 
ATOM      6  C   LIG    1        0.223  -0.120  -0.298  0.00  0.00    +0.100 C 
ENDROOT
BRANCH   1   7
ATOM      7  C   LIG    1       -1.353   0.907   1.201  0.00  0.00    +0.084 C 
BRANCH   7   8
ATOM      8  C   LIG    1       -2.495  -0.100   1.014  0.00  0.00    +0.016 C 
BRANCH   8   9
ATOM      9  C   LIG    1       -3.385   0.377  -0.136  0.00  0.00    +0.014 C 
BRANCH   9  10
ATOM     10  C   LIG    1       -4.513  -0.587  -0.286  0.00  0.00    +0.049 C 
BRANCH  10  11
ATOM     11  C   LIG    1       -5.354  -0.688   0.935  0.00  0.00    -0.040 A 
ATOM     12  C   LIG    1       -5.605   0.414   1.715  0.00  0.00    +0.007 A 
ATOM     13  C   LIG    1       -6.394   0.331   2.855  0.00  0.00    +0.038 A 
ATOM     14  C   LIG    1       -6.929  -0.886   3.199  0.00  0.00    +0.123 A 
ATOM     15  F   LIG    1       -7.698  -0.960   4.314  0.00  0.00    -0.205 F 
ATOM     16  C   LIG    1       -6.696  -2.007   2.438  0.00  0.00    +0.038 A 
ATOM     17  C   LIG    1       -5.901  -1.893   1.302  0.00  0.00    +0.007 A 
ENDBRANCH  10  11
BRANCH  10  18
ATOM     18  C   LIG    1       -5.360  -0.265  -1.488  0.00  0.00    -0.040 A 
ATOM     19  C   LIG    1       -5.617   1.042  -1.851  0.00  0.00    +0.007 A 
ATOM     20  C   LIG    1       -6.395   1.333  -2.957  0.00  0.00    +0.038 A 
ATOM     21  C   LIG    1       -6.944   0.346  -3.742  0.00  0.00    +0.123 A 
ATOM     22  C   LIG    1       -6.690  -0.973  -3.384  0.00  0.00    +0.038 A 
ATOM     23  F   LIG    1       -7.700   0.668  -4.823  0.00  0.00    -0.205 F 
ATOM     24  C   LIG    1       -5.906  -1.259  -2.268  0.00  0.00    +0.007 A 
ENDBRANCH  10  18
ENDBRANCH   9  10
ENDBRANCH   8   9
ENDBRANCH   7   8
ENDBRANCH   1   7
BRANCH   4  25
ATOM     25  C   LIG    1        3.282   1.123   0.622  0.00  0.00    +0.180 C 
BRANCH  25  26
ATOM     26  C   LIG    1        4.371   0.180   0.527  0.00  0.00    +0.231 C 
ATOM     27  O   LIG    1        4.282  -0.991   0.932  0.00  0.00    -0.274 OA
ATOM     28  N   LIG    1        5.585   0.616  -0.049  0.00  0.00    -0.284 N 
ATOM     29  H   LIG    1        5.715   1.602  -0.411  0.00  0.00    +0.155 HD
BRANCH  28  30
ATOM     30  C   LIG    1        6.733  -0.209  -0.195  0.00  0.00    +0.039 A 
ATOM     31  C   LIG    1        7.699  -0.210   0.798  0.00  0.00    -0.029 A 
ATOM     32  C   LIG    1        7.510   0.629   2.010  0.00  0.00    +0.045 C 
ATOM     33  C   LIG    1        8.802  -1.003   0.605  0.00  0.00    +0.005 A 
ATOM     34  C   LIG    1        8.944  -1.766  -0.526  0.00  0.00    +0.001 A 
ATOM     35  C   LIG    1        7.967  -1.753  -1.510  0.00  0.00    +0.005 A 
ATOM     36  C   LIG    1        6.835  -0.957  -1.341  0.00  0.00    -0.029 A 
ATOM     37  C   LIG    1        5.804  -0.971  -2.412  0.00  0.00    +0.045 C 
ENDBRANCH  28  30
ENDBRANCH  25  26
ENDBRANCH   4  25
TORSDOF 9
