REMARK  Name = molecules/ZBJBRUSGEJORQL-UHFFFAOYSA-N.pdb
REMARK                            x       y       z     vdW  Elec       q    Type
REMARK                         _______ _______ _______ _____ _____    ______ ____
ROOT
ATOM      1  C   LIG    1        0.107  -1.060   0.784  0.00  0.00    -0.043 A 
ATOM      2  C   LIG    1        0.790  -0.116   1.528  0.00  0.00    +0.007 A 
ATOM      3  C   LIG    1        2.049   0.322   1.203  0.00  0.00    +0.047 A 
ATOM      4  C   LIG    1        2.699  -0.174   0.093  0.00  0.00    +0.133 A 
ATOM      5  C   LIG    1        2.043  -1.116  -0.667  0.00  0.00    +0.047 A 
ATOM      6  C   LIG    1        0.764  -1.552  -0.325  0.00  0.00    +0.007 A 
ENDROOT
BRANCH   1   7
ATOM      7  C   LIG    1       -1.253  -1.497   1.185  0.00  0.00    +0.070 C 
BRANCH   7   8
ATOM      8  C   LIG    1       -2.321  -0.675   0.580  0.00  0.00    -0.043 A 
ATOM      9  C   LIG    1       -2.792   0.451   1.219  0.00  0.00    +0.004 A 
ATOM     10  C   LIG    1       -3.790   1.170   0.597  0.00  0.00    +0.000 A 
ATOM     11  C   LIG    1       -4.335   0.823  -0.624  0.00  0.00    +0.000 A 
ATOM     12  C   LIG    1       -3.857  -0.312  -1.264  0.00  0.00    +0.000 A 
ATOM     13  C   LIG    1       -2.858  -1.032  -0.640  0.00  0.00    +0.004 A 
ENDBRANCH   7   8
ENDBRANCH   1   7
BRANCH   4  14
ATOM     14  O   LIG    1        3.987   0.272  -0.244  0.00  0.00    -0.412 OA
BRANCH  14  15
ATOM     15  C   LIG    1        4.144   1.364  -1.079  0.00  0.00    +0.403 C 
ATOM     16  N   LIG    1        5.392   1.881  -1.472  0.00  0.00    -0.295 N 
ATOM     17  H   LIG    1        5.787   2.712  -0.991  0.00  0.00    +0.148 HD
ATOM     18  H   LIG    1        5.920   1.429  -2.245  0.00  0.00    +0.148 HD
ATOM     19  O   LIG    1        3.081   1.915  -1.504  0.00  0.00    -0.226 OA
ENDBRANCH  14  15
ENDBRANCH   4  14
TORSDOF 4
