REMARK  Name = molecules/ZBJWWKFMHOAPNS-UHFFFAOYSA-N.pdb
REMARK                            x       y       z     vdW  Elec       q    Type
REMARK                         _______ _______ _______ _____ _____    ______ ____
ROOT
ATOM      1  C   LIG    1        0.976   0.380  -0.317  0.00  0.00    +0.127 A 
ATOM      2  C   LIG    1       -0.097  -0.406   0.004  0.00  0.00    +0.031 A 
ATOM      3  C   LIG    1        0.085  -1.743   0.285  0.00  0.00    +0.013 A 
ATOM      4  C   LIG    1       -1.025  -2.492   0.603  0.00  0.00    +0.020 A 
ATOM      5  C   LIG    1       -2.267  -1.893   0.630  0.00  0.00    +0.111 A 
ATOM      6  N   LIG    1       -2.411  -0.586   0.351  0.00  0.00    -0.251 NA
ATOM      7  C   LIG    1       -1.358   0.187   0.036  0.00  0.00    +0.115 A 
ATOM      8  C   LIG    1       -1.539   1.524  -0.245  0.00  0.00    +0.156 A 
ATOM      9  C   LIG    1       -0.451   2.305  -0.567  0.00  0.00    +0.059 A 
ATOM     10  I   LIG    1       -0.747   4.344  -0.992  0.00  0.00    -0.040 I 
ATOM     11  C   LIG    1        0.806   1.725  -0.601  0.00  0.00    +0.048 A 
ENDROOT
BRANCH   1  12
ATOM     12  S   LIG    1        2.554  -0.381  -0.352  0.00  0.00    +0.110 S 
ATOM     13  O   LIG    1        3.547   0.663  -0.784  0.00  0.00    -0.142 OA
ATOM     14  O   LIG    1        2.594  -1.482  -1.392  0.00  0.00    -0.142 OA
BRANCH  12  15
ATOM     15  O   LIG    1        2.971  -1.036   1.124  0.00  0.00    -0.250 OA
ATOM     16  H   LIG    1        3.354  -0.342   1.721  0.00  0.00    +0.245 HD
ENDBRANCH  12  15
ENDBRANCH   1  12
BRANCH   8  17
ATOM     17  O   LIG    1       -2.787   2.107  -0.213  0.00  0.00    -0.504 OA
ATOM     18  H   LIG    1       -2.962   3.073  -0.410  0.00  0.00    +0.292 HD
ENDBRANCH   8  17
TORSDOF 3
