REMARK  Name = molecules/ZBNZXTGUTAYRHI-UHFFFAOYSA-N.pdb
REMARK                            x       y       z     vdW  Elec       q    Type
REMARK                         _______ _______ _______ _____ _____    ______ ____
ROOT
ATOM      1  N   LIG    1       -0.105  -0.252   1.028  0.00  0.00    -0.279 N 
ATOM      2  H   LIG    1       -0.463  -0.584   1.948  0.00  0.00    +0.155 HD
ENDROOT
BRANCH   1   3
ATOM      3  C   LIG    1       -0.968   0.232   0.030  0.00  0.00    +0.130 A 
ATOM      4  C   LIG    1       -2.321   0.275   0.266  0.00  0.00    +0.087 A 
ATOM      5  C   LIG    1       -3.212   0.739  -0.678  0.00  0.00    +0.127 A 
ATOM      6  N   LIG    1       -2.724   1.157  -1.858  0.00  0.00    -0.218 NA
ATOM      7  C   LIG    1       -1.407   1.121  -2.103  0.00  0.00    +0.130 A 
ATOM      8  C   LIG    1       -0.853   1.589  -3.426  0.00  0.00    +0.088 C 
ATOM      9  N   LIG    1       -0.554   0.663  -1.166  0.00  0.00    -0.217 NA
BRANCH   5  10
ATOM     10  N   LIG    1       -4.598   0.764  -0.382  0.00  0.00    -0.313 N 
ATOM     11  C   LIG    1       -5.058   0.329   0.911  0.00  0.00    +0.122 C 
ATOM     12  C   LIG    1       -6.531   0.670   1.019  0.00  0.00    +0.103 C 
ATOM     13  N   LIG    1       -7.245   0.043  -0.029  0.00  0.00    -0.297 NA
ATOM     14  C   LIG    1       -6.750   0.295  -1.343  0.00  0.00    +0.103 C 
ATOM     15  C   LIG    1       -5.554   1.221  -1.355  0.00  0.00    +0.122 C 
BRANCH  13  16
ATOM     16  C   LIG    1       -7.367  -1.371   0.181  0.00  0.00    +0.112 C 
BRANCH  16  17
ATOM     17  C   LIG    1       -7.859  -1.752   1.543  0.00  0.00    +0.171 C 
BRANCH  17  18
ATOM     18  O   LIG    1       -9.113  -1.212   1.810  0.00  0.00    -0.394 OA
ATOM     19  H   LIG    1       -9.133  -0.303   1.447  0.00  0.00    +0.209 HD
ENDBRANCH  17  18
ENDBRANCH  16  17
ENDBRANCH  13  16
ENDBRANCH   5  10
ENDBRANCH   1   3
BRANCH   1  20
ATOM     20  C   LIG    1        1.315  -0.286   0.758  0.00  0.00    +0.164 A 
ATOM     21  S   LIG    1        2.587  -0.818   1.762  0.00  0.00    -0.047 S 
ATOM     22  C   LIG    1        3.891  -0.520   0.703  0.00  0.00    +0.095 A 
ATOM     23  C   LIG    1        3.244  -0.012  -0.398  0.00  0.00    +0.133 A 
ATOM     24  N   LIG    1        1.954   0.091  -0.335  0.00  0.00    -0.232 NA
BRANCH  22  25
ATOM     25  C   LIG    1        5.338  -0.737   0.880  0.00  0.00    +0.256 C 
ATOM     26  O   LIG    1        5.801  -1.214   1.938  0.00  0.00    -0.269 OA
ATOM     27  N   LIG    1        6.237  -0.403  -0.165  0.00  0.00    -0.280 N 
ATOM     28  H   LIG    1        5.806   0.000  -1.047  0.00  0.00    +0.155 HD
BRANCH  27  29
ATOM     29  C   LIG    1        7.630  -0.577  -0.083  0.00  0.00    +0.055 A 
ATOM     30  C   LIG    1        8.426   0.432   0.406  0.00  0.00    -0.028 A 
ATOM     31  C   LIG    1        7.778   1.696   0.839  0.00  0.00    +0.046 C 
ATOM     32  C   LIG    1        9.806   0.232   0.476  0.00  0.00    +0.005 A 
ATOM     33  C   LIG    1       10.393  -0.944   0.071  0.00  0.00    +0.002 A 
ATOM     34  C   LIG    1        9.591  -1.951  -0.417  0.00  0.00    +0.022 A 
ATOM     35  C   LIG    1        8.205  -1.761  -0.492  0.00  0.00    +0.062 A 
ATOM     36 CL   LIG    1        7.194  -3.035  -1.111  0.00  0.00    -0.082 Cl
ENDBRANCH  27  29
ENDBRANCH  22  25
ENDBRANCH   1  20
TORSDOF 8
