REMARK  Name = molecules/ZBRCAASZBMWIDA-QFPUCQTMSA-N.pdb
REMARK                            x       y       z     vdW  Elec       q    Type
REMARK                         _______ _______ _______ _____ _____    ______ ____
ROOT
ATOM      1  C   LIG    1       -1.942   0.528   1.003  0.00  0.00    +0.200 C 
ENDROOT
BRANCH   1   2
ATOM      2  C   LIG    1       -2.524   0.700  -0.390  0.00  0.00    +0.242 C 
ATOM      3  C   LIG    1       -4.004   0.982  -0.372  0.00  0.00    +0.197 C 
ATOM      4  C   LIG    1       -4.618  -0.365  -0.193  0.00  0.00    +0.255 C 
ATOM      5  C   LIG    1       -3.501  -1.306  -0.437  0.00  0.00    +0.339 C 
ATOM      6  O   LIG    1       -3.497  -2.554  -0.159  0.00  0.00    -0.248 OA
ATOM      7  O   LIG    1       -2.481  -0.566  -1.016  0.00  0.00    -0.454 OA
BRANCH   3   8
ATOM      8  O   LIG    1       -4.369   1.899   0.606  0.00  0.00    -0.385 OA
ATOM      9  H   LIG    1       -3.671   2.608   0.596  0.00  0.00    +0.210 HD
ENDBRANCH   3   8
BRANCH   4  10
ATOM     10  O   LIG    1       -5.194  -0.493   1.059  0.00  0.00    -0.378 OA
ATOM     11  H   LIG    1       -5.319   0.411   1.423  0.00  0.00    +0.211 HD
ENDBRANCH   4  10
ENDBRANCH   1   2
BRANCH   1  12
ATOM     12  O   LIG    1       -2.665  -0.388   1.753  0.00  0.00    -0.382 OA
ATOM     13  H   LIG    1       -2.149  -1.227   1.831  0.00  0.00    +0.210 HD
ENDBRANCH   1  12
BRANCH   1  14
ATOM     14  C   LIG    1       -0.544   0.050   0.916  0.00  0.00    +0.138 C 
ATOM     15  N   LIG    1        0.093  -0.073  -0.192  0.00  0.00    -0.190 NA
BRANCH  15  16
ATOM     16  N   LIG    1        1.408  -0.523  -0.283  0.00  0.00    -0.203 N 
ATOM     17  C   LIG    1        2.463   0.407  -0.201  0.00  0.00    +0.263 C 
ATOM     18  O   LIG    1        2.182   1.633  -0.046  0.00  0.00    -0.268 OA
ATOM     19  H   LIG    1        1.560  -1.540  -0.409  0.00  0.00    +0.178 HD
BRANCH  17  20
ATOM     20  C   LIG    1        3.879  -0.014  -0.291  0.00  0.00    +0.041 A 
ATOM     21  C   LIG    1        4.889   0.931  -0.207  0.00  0.00    +0.033 A 
ATOM     22  C   LIG    1        6.226   0.585  -0.286  0.00  0.00    +0.111 A 
ATOM     23  N   LIG    1        6.548  -0.709  -0.450  0.00  0.00    -0.263 NA
ATOM     24  C   LIG    1        5.611  -1.668  -0.538  0.00  0.00    +0.111 A 
ATOM     25  C   LIG    1        4.256  -1.325  -0.459  0.00  0.00    +0.033 A 
ENDBRANCH  17  20
ENDBRANCH  15  16
ENDBRANCH   1  14
TORSDOF 7
