REMARK  Name = molecules/ZBVKEHDGYSLCCC-SFHVURJKSA-N.pdb
REMARK                            x       y       z     vdW  Elec       q    Type
REMARK                         _______ _______ _______ _____ _____    ______ ____
ROOT
ATOM      1  C   LIG    1       -0.278  -1.207  -0.912  0.00  0.00    +0.053 C 
ENDROOT
BRANCH   1   2
ATOM      2  C   LIG    1       -1.292  -0.282  -0.370  0.00  0.00    +0.013 C 
ATOM      3  C   LIG    1       -2.100  -0.598   0.616  0.00  0.00    +0.004 C 
ATOM      4  C   LIG    1       -2.093  -1.898   1.290  0.00  0.00    +0.048 C 
ATOM      5  C   LIG    1       -3.042   0.447   1.099  0.00  0.00    +0.185 C 
ATOM      6  O   LIG    1       -3.817   0.130   2.046  0.00  0.00    -0.287 OA
ATOM      7  C   LIG    1       -3.109   1.784   0.540  0.00  0.00    +0.003 C 
ATOM      8  C   LIG    1       -4.057   2.809   1.039  0.00  0.00    +0.048 C 
ATOM      9  C   LIG    1       -2.281   2.067  -0.448  0.00  0.00    +0.003 C 
ATOM     10  C   LIG    1       -2.344   3.442  -1.025  0.00  0.00    +0.048 C 
ATOM     11  C   LIG    1       -1.347   1.097  -0.960  0.00  0.00    +0.186 C 
ATOM     12  O   LIG    1       -0.567   1.380  -1.908  0.00  0.00    -0.287 OA
ENDBRANCH   1   2
BRANCH   1  13
ATOM     13  C   LIG    1       -0.697  -2.628  -0.986  0.00  0.00    -0.040 A 
ATOM     14  C   LIG    1       -0.117  -3.647  -0.270  0.00  0.00    +0.004 A 
ATOM     15  C   LIG    1       -0.535  -4.942  -0.459  0.00  0.00    +0.000 A 
ATOM     16  C   LIG    1       -1.533  -5.272  -1.353  0.00  0.00    +0.000 A 
ATOM     17  C   LIG    1       -2.096  -4.214  -2.058  0.00  0.00    +0.000 A 
ATOM     18  C   LIG    1       -1.695  -2.912  -1.888  0.00  0.00    +0.004 A 
ENDBRANCH   1  13
BRANCH   1  19
ATOM     19  C   LIG    1        1.034  -1.088  -0.192  0.00  0.00    +0.013 C 
BRANCH  19  20
ATOM     20  C   LIG    1        1.635   0.278  -0.269  0.00  0.00    +0.001 C 
BRANCH  20  21
ATOM     21  C   LIG    1        2.983   0.305   0.486  0.00  0.00    +0.001 C 
BRANCH  21  22
ATOM     22  C   LIG    1        3.494   1.742   0.336  0.00  0.00    +0.011 C 
BRANCH  22  23
ATOM     23  C   LIG    1        4.802   1.831   1.050  0.00  0.00    +0.120 C 
BRANCH  23  24
ATOM     24  C   LIG    1        5.351   3.200   0.943  0.00  0.00    +0.305 C 
ATOM     25  O   LIG    1        4.699   4.062   0.310  0.00  0.00    -0.251 OA
BRANCH  24  26
ATOM     26  O   LIG    1        6.545   3.534   1.516  0.00  0.00    -0.481 OA
ATOM     27  H   LIG    1        6.742   4.411   1.952  0.00  0.00    +0.295 HD
ENDBRANCH  24  26
ENDBRANCH  23  24
ENDBRANCH  22  23
ENDBRANCH  21  22
ENDBRANCH  20  21
ENDBRANCH  19  20
ENDBRANCH   1  19
TORSDOF 9
