REMARK  Name = molecules/ZCBJDQBSLZREAA-UHFFFAOYSA-N.pdb
REMARK                            x       y       z     vdW  Elec       q    Type
REMARK                         _______ _______ _______ _____ _____    ______ ____
ROOT
ATOM      1  O   LIG    1        1.420   0.783  -2.502  0.00  0.00    -0.270 OA
ATOM      2  C   LIG    1        0.802   1.404  -1.617  0.00  0.00    +0.270 C 
ATOM      3  C   LIG    1        0.378   0.764  -0.353  0.00  0.00    +0.236 C 
ATOM      4  O   LIG    1        0.420   1.740   0.687  0.00  0.00    -0.465 OA
ATOM      5  C   LIG    1        0.116   3.074   0.520  0.00  0.00    +0.144 A 
ATOM      6  C   LIG    1       -0.223   3.890   1.594  0.00  0.00    +0.047 A 
ATOM      7  C   LIG    1       -0.524   5.220   1.411  0.00  0.00    +0.004 A 
ATOM      8  C   LIG    1       -0.491   5.761   0.144  0.00  0.00    +0.002 A 
ATOM      9  C   LIG    1       -0.154   4.943  -0.908  0.00  0.00    +0.027 A 
ATOM     10  C   LIG    1        0.152   3.604  -0.747  0.00  0.00    +0.076 A 
ATOM     11  N   LIG    1        0.498   2.766  -1.831  0.00  0.00    -0.279 N 
ATOM     12  H   LIG    1        0.516   3.200  -2.782  0.00  0.00    +0.155 HD
ENDROOT
BRANCH   3  13
ATOM     13  C   LIG    1        1.355  -0.281  -0.033  0.00  0.00    +0.009 A 
ATOM     14  C   LIG    1        2.059  -0.221   1.145  0.00  0.00    +0.012 A 
ATOM     15  C   LIG    1        3.000  -1.165   1.527  0.00  0.00    +0.047 A 
ATOM     16  C   LIG    1        3.244  -2.222   0.681  0.00  0.00    +0.132 A 
ATOM     17  C   LIG    1        2.559  -2.317  -0.507  0.00  0.00    +0.047 A 
ATOM     18  C   LIG    1        1.616  -1.348  -0.865  0.00  0.00    +0.012 A 
BRANCH  16  19
ATOM     19  O   LIG    1        4.166  -3.201   0.992  0.00  0.00    -0.426 OA
BRANCH  19  20
ATOM     20  C   LIG    1        5.516  -3.103   0.618  0.00  0.00    +0.309 C 
ATOM     21  C   LIG    1        6.486  -4.174   0.966  0.00  0.00    +0.136 C 
ATOM     22  O   LIG    1        5.830  -2.067  -0.017  0.00  0.00    -0.251 OA
ENDBRANCH  19  20
ENDBRANCH  16  19
ENDBRANCH   3  13
BRANCH   3  23
ATOM     23  C   LIG    1       -1.024   0.276  -0.421  0.00  0.00    +0.009 A 
ATOM     24  C   LIG    1       -1.857   0.395   0.679  0.00  0.00    +0.012 A 
ATOM     25  C   LIG    1       -3.147  -0.041   0.667  0.00  0.00    +0.047 A 
ATOM     26  C   LIG    1       -3.693  -0.628  -0.453  0.00  0.00    +0.132 A 
ATOM     27  C   LIG    1       -2.887  -0.759  -1.562  0.00  0.00    +0.047 A 
ATOM     28  C   LIG    1       -1.578  -0.312  -1.538  0.00  0.00    +0.012 A 
BRANCH  26  29
ATOM     29  O   LIG    1       -5.009  -1.052  -0.407  0.00  0.00    -0.426 OA
BRANCH  29  30
ATOM     30  C   LIG    1       -5.299  -2.353   0.010  0.00  0.00    +0.309 C 
ATOM     31  O   LIG    1       -4.327  -3.083   0.328  0.00  0.00    -0.251 OA
ATOM     32  C   LIG    1       -6.710  -2.845   0.072  0.00  0.00    +0.136 C 
ENDBRANCH  29  30
ENDBRANCH  26  29
ENDBRANCH   3  23
TORSDOF 6
