REMARK  Name = molecules/ZCBUQCWBWNUWSU-SFHVURJKSA-N.pdb
REMARK                            x       y       z     vdW  Elec       q    Type
REMARK                         _______ _______ _______ _____ _____    ______ ____
ROOT
ATOM      1  O   LIG    1       -4.787   2.950  -1.519  0.00  0.00    -0.270 OA
ATOM      2  C   LIG    1       -4.536   1.808  -1.048  0.00  0.00    +0.252 C 
ATOM      3  C   LIG    1       -3.272   1.242  -0.571  0.00  0.00    +0.059 C 
ATOM      4  C   LIG    1       -3.492  -0.025  -0.160  0.00  0.00    +0.059 C 
ATOM      5  C   LIG    1       -2.400  -0.925   0.350  0.00  0.00    +0.013 A 
ATOM      6  C   LIG    1       -1.434  -0.704   1.275  0.00  0.00    +0.095 A 
ATOM      7  N   LIG    1       -0.699  -1.829   1.366  0.00  0.00    -0.344 N 
ATOM      8  C   LIG    1        0.484  -2.091   2.214  0.00  0.00    +0.150 C 
ATOM      9  C   LIG    1        1.766  -1.563   1.602  0.00  0.00    +0.181 C 
ATOM     10  O   LIG    1        1.527  -0.405   0.962  0.00  0.00    -0.373 OA
ATOM     11  C   LIG    1        2.375   0.127   0.084  0.00  0.00    +0.134 C 
ATOM     12  C   LIG    1        2.431   1.623   0.322  0.00  0.00    +0.054 C 
ATOM     13  C   LIG    1        1.671   2.435  -0.692  0.00  0.00    +0.124 C 
ATOM     14  N   LIG    1        0.221   2.405  -0.532  0.00  0.00    -0.346 N 
ATOM     15  C   LIG    1       -0.447   3.456   0.073  0.00  0.00    +0.050 A 
ATOM     16  C   LIG    1       -0.035   4.676   0.605  0.00  0.00    +0.026 A 
ATOM     17  C   LIG    1       -0.898   5.576   1.165  0.00  0.00    +0.002 A 
ATOM     18  C   LIG    1       -2.231   5.270   1.210  0.00  0.00    +0.001 A 
ATOM     19  C   LIG    1       -2.656   4.073   0.691  0.00  0.00    +0.010 A 
ATOM     20  C   LIG    1       -1.784   3.153   0.119  0.00  0.00    +0.008 A 
ATOM     21  C   LIG    1       -0.669   1.448  -0.868  0.00  0.00    +0.095 A 
ATOM     22  C   LIG    1       -1.169  -2.793   0.510  0.00  0.00    +0.050 A 
ATOM     23  C   LIG    1       -0.774  -4.108   0.218  0.00  0.00    +0.026 A 
ATOM     24  C   LIG    1       -1.443  -4.864  -0.714  0.00  0.00    +0.002 A 
ATOM     25  C   LIG    1       -2.514  -4.329  -1.372  0.00  0.00    +0.001 A 
ATOM     26  C   LIG    1       -2.911  -3.018  -1.082  0.00  0.00    +0.010 A 
ATOM     27  C   LIG    1       -2.235  -2.244  -0.135  0.00  0.00    +0.008 A 
ATOM     28  C   LIG    1       -4.911  -0.293  -0.365  0.00  0.00    +0.252 C 
ATOM     29  O   LIG    1       -5.574  -1.360  -0.116  0.00  0.00    -0.270 OA
ATOM     30  C   LIG    1       -1.909   1.882  -0.478  0.00  0.00    +0.013 A 
ATOM     31  N   LIG    1       -5.537   0.831  -0.907  0.00  0.00    -0.248 N 
ATOM     32  H   LIG    1       -6.561   0.935  -1.165  0.00  0.00    +0.158 HD
ENDROOT
BRANCH  11  33
ATOM     33  C   LIG    1        3.772  -0.353  -0.017  0.00  0.00    +0.115 C 
BRANCH  33  34
ATOM     34  N   LIG    1        3.997  -1.710  -0.357  0.00  0.00    -0.306 NA
ATOM     35  C   LIG    1        5.456  -1.909  -0.367  0.00  0.00    +0.104 C 
ATOM     36  C   LIG    1        3.510  -2.054  -1.678  0.00  0.00    +0.104 C 
ENDBRANCH  33  34
ENDBRANCH  11  33
TORSDOF 2
