REMARK  Name = molecules/ZCGOMHNNNFPNMX-KYTRFIICSA-N.pdb
REMARK                            x       y       z     vdW  Elec       q    Type
REMARK                         _______ _______ _______ _____ _____    ______ ____
ROOT
ATOM      1  N   LIG    1        0.198   0.125  -0.075  0.00  0.00    -0.299 NA
ATOM      2  C   LIG    1        0.885  -0.671   0.833  0.00  0.00    +0.086 C 
ATOM      3  C   LIG    1        2.349  -0.430   1.050  0.00  0.00    +0.038 C 
ATOM      4  C   LIG    1        2.994  -0.028  -0.292  0.00  0.00    +0.097 C 
ATOM      5  C   LIG    1        2.338   1.283  -0.611  0.00  0.00    +0.021 C 
ATOM      6  C   LIG    1        2.596   2.239   0.541  0.00  0.00    +0.010 C 
ATOM      7  C   LIG    1        0.848   1.133  -0.807  0.00  0.00    +0.089 C 
ENDROOT
BRANCH   1  13
ATOM      8  C   LIG    1       -2.062   0.595  -0.943  0.00  0.00    +0.021 C 
ATOM      9  C   LIG    1       -2.582   1.081   0.355  0.00  0.00    +0.028 C 
ATOM     10  C   LIG    1       -3.322  -0.044   1.059  0.00  0.00    +0.082 C 
ATOM     11  C   LIG    1       -2.505  -1.271   1.125  0.00  0.00    +0.028 C 
ATOM     12  C   LIG    1       -1.626  -1.566  -0.052  0.00  0.00    +0.021 C 
ATOM     13  C   LIG    1       -0.962  -0.421  -0.699  0.00  0.00    +0.057 C 
BRANCH  10  14
ATOM     14  C   LIG    1       -4.681  -0.195   0.515  0.00  0.00    -0.027 A 
ATOM     15  C   LIG    1       -5.500   0.923   0.530  0.00  0.00    +0.008 A 
ATOM     16  C   LIG    1       -6.790   0.897   0.045  0.00  0.00    +0.038 A 
ATOM     17  C   LIG    1       -7.311  -0.246  -0.471  0.00  0.00    +0.123 A 
ATOM     18  C   LIG    1       -6.523  -1.381  -0.502  0.00  0.00    +0.038 A 
ATOM     19  F   LIG    1       -8.585  -0.347  -0.962  0.00  0.00    -0.205 F 
ATOM     20  C   LIG    1       -5.225  -1.332  -0.008  0.00  0.00    +0.008 A 
ENDBRANCH  10  14
BRANCH  10  21
ATOM     21  C   LIG    1       -3.502   0.440   2.457  0.00  0.00    +0.074 C 
ATOM     22  N   LIG    1       -3.663   0.827   3.545  0.00  0.00    -0.196 NA
ENDBRANCH  10  21
ENDBRANCH   1  13
BRANCH   4  23
ATOM     23  C   LIG    1        4.444   0.066  -0.152  0.00  0.00    -0.030 A 
ATOM     24  C   LIG    1        5.178  -1.052   0.264  0.00  0.00    +0.005 A 
ATOM     25  C   LIG    1        6.544  -1.022   0.449  0.00  0.00    +0.000 A 
ATOM     26  C   LIG    1        7.221   0.158   0.219  0.00  0.00    +0.000 A 
ATOM     27  C   LIG    1        6.515   1.268  -0.190  0.00  0.00    +0.000 A 
ATOM     28  C   LIG    1        5.144   1.231  -0.377  0.00  0.00    +0.005 A 
ENDBRANCH   4  23
BRANCH   4  29
ATOM     29  C   LIG    1        2.630  -1.119  -1.248  0.00  0.00    +0.316 C 
ATOM     30  O   LIG    1        2.007  -0.882  -2.313  0.00  0.00    -0.250 OA
BRANCH  29  31
ATOM     31  O   LIG    1        2.977  -2.399  -0.961  0.00  0.00    -0.480 OA
ATOM     32  H   LIG    1        2.625  -3.017  -0.272  0.00  0.00    +0.295 HD
ENDBRANCH  29  31
ENDBRANCH   4  29
TORSDOF 6
