REMARK  Name = molecules/ZCJYUTQZBAIHBS-DEOSSOPVSA-N.pdb
REMARK                            x       y       z     vdW  Elec       q    Type
REMARK                         _______ _______ _______ _____ _____    ______ ____
ROOT
ATOM      1  O   LIG    1       -1.924  -0.286   1.254  0.00  0.00    -0.366 OA
ENDROOT
BRANCH   1   2
ATOM      2  C   LIG    1       -0.713  -0.161   1.827  0.00  0.00    +0.196 C 
BRANCH   2   6
ATOM      3  C   LIG    1        2.900  -1.334  -0.188  0.00  0.00    +0.013 A 
ATOM      4  C   LIG    1        2.846  -0.174   0.570  0.00  0.00    +0.015 A 
ATOM      5  C   LIG    1        1.670   0.182   1.194  0.00  0.00    +0.007 A 
ATOM      6  C   LIG    1        0.499  -0.586   1.101  0.00  0.00    -0.022 A 
ATOM      7  C   LIG    1        0.578  -1.731   0.345  0.00  0.00    +0.007 A 
ATOM      8  C   LIG    1        1.753  -2.085  -0.279  0.00  0.00    +0.015 A 
BRANCH   3   9
ATOM      9  S   LIG    1        4.442  -1.841  -0.979  0.00  0.00    -0.089 S 
BRANCH   9  14
ATOM     10  C   LIG    1        7.017   1.265  -0.594  0.00  0.00    +0.001 A 
ATOM     11  C   LIG    1        7.739   0.907   0.507  0.00  0.00    +0.000 A 
ATOM     12  C   LIG    1        7.499  -0.264   1.175  0.00  0.00    +0.001 A 
ATOM     13  C   LIG    1        6.496  -1.070   0.693  0.00  0.00    +0.015 A 
ATOM     14  C   LIG    1        5.737  -0.735  -0.431  0.00  0.00    +0.013 A 
ATOM     15  C   LIG    1        6.004   0.438  -1.071  0.00  0.00    +0.015 A 
ENDBRANCH   9  14
ENDBRANCH   3   9
ENDBRANCH   2   6
ENDBRANCH   1   2
BRANCH   1  16
ATOM     16  C   LIG    1       -2.273   0.404   0.158  0.00  0.00    +0.170 C 
BRANCH  16  17
ATOM     17  C   LIG    1       -3.377   1.397   0.309  0.00  0.00    +0.001 A 
ATOM     18  C   LIG    1       -3.763   1.948   1.516  0.00  0.00    +0.048 A 
ATOM     19 CL   LIG    1       -3.081   1.398   3.035  0.00  0.00    -0.083 Cl
ATOM     20  C   LIG    1       -4.750   2.926   1.609  0.00  0.00    +0.040 A 
ATOM     21  C   LIG    1       -5.392   3.387   0.490  0.00  0.00    +0.042 A 
ATOM     22 CL   LIG    1       -6.638   4.625   0.639  0.00  0.00    -0.083 Cl
ATOM     23  C   LIG    1       -5.044   2.868  -0.721  0.00  0.00    +0.020 A 
ATOM     24  C   LIG    1       -4.063   1.901  -0.792  0.00  0.00    +0.009 A 
ENDBRANCH  16  17
BRANCH  16  25
ATOM     25  C   LIG    1       -2.403  -0.426  -1.099  0.00  0.00    +0.159 C 
BRANCH  25  26
ATOM     26  N   LIG    1       -3.380  -1.462  -1.042  0.00  0.00    -0.334 N 
ATOM     27  C   LIG    1       -3.217  -2.728  -0.626  0.00  0.00    +0.107 A 
ATOM     28  C   LIG    1       -4.432  -3.413  -0.744  0.00  0.00    +0.130 A 
ATOM     29  N   LIG    1       -5.290  -2.532  -1.230  0.00  0.00    -0.244 NA
ATOM     30  C   LIG    1       -4.659  -1.354  -1.411  0.00  0.00    +0.199 A 
ENDBRANCH  25  26
ENDBRANCH  16  25
ENDBRANCH   1  16
TORSDOF 8
