REMARK  Name = molecules/ZCKAMNXUHHNZLN-UHFFFAOYSA-N.pdb
REMARK                            x       y       z     vdW  Elec       q    Type
REMARK                         _______ _______ _______ _____ _____    ______ ____
ROOT
ATOM      1  C   LIG    1       -0.463   0.826  -0.551  0.00  0.00    +0.056 C 
ENDROOT
BRANCH   1   2
ATOM      2  C   LIG    1        0.896   0.365  -0.240  0.00  0.00    -0.046 A 
ATOM      3  C   LIG    1        1.514   0.853   0.891  0.00  0.00    +0.005 A 
ATOM      4  C   LIG    1        2.794   0.469   1.256  0.00  0.00    +0.020 A 
ATOM      5  C   LIG    1        3.506  -0.428   0.489  0.00  0.00    +0.041 A 
ATOM      6 CL   LIG    1        5.140  -0.923   0.947  0.00  0.00    -0.084 Cl
ATOM      7  C   LIG    1        2.901  -0.922  -0.642  0.00  0.00    +0.020 A 
ATOM      8  C   LIG    1        1.611  -0.533  -1.007  0.00  0.00    +0.005 A 
ENDBRANCH   1   2
BRANCH   1  10
ATOM      9  C   LIG    1       -2.877   0.572  -0.351  0.00  0.00    +0.027 C 
ATOM     10  C   LIG    1       -1.542  -0.031   0.059  0.00  0.00    +0.015 C 
ATOM     11  C   LIG    1       -1.505  -0.028   1.566  0.00  0.00    +0.027 C 
BRANCH  10  12
ATOM     12  N   LIG    1       -1.475  -1.379  -0.413  0.00  0.00    -0.325 NA
ATOM     13  H   LIG    1       -2.128  -1.983   0.114  0.00  0.00    +0.119 HD
ATOM     14  H   LIG    1       -1.623  -1.407  -1.429  0.00  0.00    +0.119 HD
ENDBRANCH  10  12
ENDBRANCH   1  10
TORSDOF 3
