REMARK  Name = molecules/ZDIGNSYAACHWNL-HNNXBMFYSA-N.pdb
REMARK                            x       y       z     vdW  Elec       q    Type
REMARK                         _______ _______ _______ _____ _____    ______ ____
ROOT
ATOM      1  C   LIG    1       -0.401   0.300   0.333  0.00  0.00    +0.069 C 
ENDROOT
BRANCH   1   2
ATOM      2  C   LIG    1       -1.286   1.422  -0.046  0.00  0.00    -0.038 A 
ATOM      3  C   LIG    1       -2.302   1.770   0.819  0.00  0.00    +0.005 A 
ATOM      4  C   LIG    1       -3.155   2.810   0.510  0.00  0.00    +0.015 A 
ATOM      5  C   LIG    1       -3.020   3.515  -0.645  0.00  0.00    +0.018 A 
ATOM      6 BR   LIG    1       -4.196   4.954  -1.077  0.00  0.00    -0.050 Br
ATOM      7  C   LIG    1       -2.000   3.178  -1.530  0.00  0.00    +0.015 A 
ATOM      8  C   LIG    1       -1.146   2.126  -1.208  0.00  0.00    +0.005 A 
ENDBRANCH   1   2
BRANCH   1   9
ATOM      9  C   LIG    1       -0.969  -0.955  -0.201  0.00  0.00    +0.049 A 
ATOM     10  C   LIG    1       -1.840  -1.725   0.537  0.00  0.00    +0.024 A 
ATOM     11  C   LIG    1       -2.362  -2.900   0.018  0.00  0.00    +0.003 A 
ATOM     12  C   LIG    1       -2.005  -3.286  -1.233  0.00  0.00    +0.020 A 
ATOM     13  C   LIG    1       -1.136  -2.513  -1.963  0.00  0.00    +0.111 A 
ATOM     14  N   LIG    1       -0.650  -1.379  -1.423  0.00  0.00    -0.259 NA
ENDBRANCH   1   9
BRANCH   1  15
ATOM     15  C   LIG    1        1.023   0.481  -0.158  0.00  0.00    +0.029 C 
BRANCH  15  16
ATOM     16  C   LIG    1        1.813  -0.732   0.301  0.00  0.00    +0.085 C 
BRANCH  16  17
ATOM     17  N   LIG    1        3.188  -0.641  -0.125  0.00  0.00    -0.308 NA
ATOM     18  C   LIG    1        3.992  -1.746   0.271  0.00  0.00    +0.104 C 
ATOM     19  C   LIG    1        3.771   0.648   0.106  0.00  0.00    +0.104 C 
ENDBRANCH  16  17
ENDBRANCH  15  16
ENDBRANCH   1  15
TORSDOF 5
