REMARK  Name = molecules/ZDXUKAKRHYTAKV-MGBGTMOVSA-N.pdb
REMARK                            x       y       z     vdW  Elec       q    Type
REMARK                         _______ _______ _______ _____ _____    ______ ____
ROOT
ATOM      1  C   LIG    1       -1.727   1.773  -0.463  0.00  0.00    +0.338 C 
ATOM      2  O   LIG    1       -1.822   1.752   0.788  0.00  0.00    -0.245 OA
ENDROOT
BRANCH   1   4
ATOM      3  C   LIG    1       -4.193   1.381  -0.454  0.00  0.00    +0.096 C 
ATOM      4  C   LIG    1       -2.982   1.613  -1.233  0.00  0.00    +0.065 C 
ATOM      5  C   LIG    1       -2.999   1.650  -2.542  0.00  0.00    +0.016 C 
ATOM      6  C   LIG    1       -1.690   1.934  -3.217  0.00  0.00    +0.061 C 
ATOM      7  N   LIG    1       -4.184   1.465  -3.305  0.00  0.00    -0.321 N 
ATOM      8  C   LIG    1       -5.382   1.234  -2.572  0.00  0.00    +0.016 C 
ATOM      9  C   LIG    1       -6.679   1.028  -3.335  0.00  0.00    +0.061 C 
ATOM     10  H   LIG    1       -4.171   1.499  -4.346  0.00  0.00    +0.152 HD
ATOM     11  C   LIG    1       -5.397   1.193  -1.264  0.00  0.00    +0.065 C 
BRANCH   3  12
ATOM     12  C   LIG    1       -4.016   0.081   0.311  0.00  0.00    -0.033 A 
ATOM     13  C   LIG    1       -4.028   0.043   1.694  0.00  0.00    +0.037 A 
ATOM     14  C   LIG    1       -3.862  -1.146   2.379  0.00  0.00    +0.126 A 
ATOM     15  C   LIG    1       -3.681  -2.327   1.703  0.00  0.00    +0.033 A 
ATOM     16  C   LIG    1       -3.666  -2.313   0.337  0.00  0.00    +0.003 A 
ATOM     17  C   LIG    1       -3.834  -1.108  -0.354  0.00  0.00    +0.005 A 
BRANCH  14  18
ATOM     18  N   LIG    1       -3.874  -1.144   3.789  0.00  0.00    +0.056 N 
ATOM     19  O   LIG    1       -4.043  -0.007   4.533  0.00  0.00    -0.126 OA
ATOM     20  O   LIG    1       -3.724  -2.214   4.407  0.00  0.00    -0.126 OA
ENDBRANCH  14  18
ENDBRANCH   3  12
BRANCH  11  21
ATOM     21  C   LIG    1       -6.654   0.956  -0.517  0.00  0.00    +0.337 C 
ATOM     22  O   LIG    1       -6.684   0.914   0.747  0.00  0.00    -0.245 OA
BRANCH  21  23
ATOM     23  O   LIG    1       -7.845   0.771  -1.165  0.00  0.00    -0.465 OA
ATOM     24  C   LIG    1       -9.086   0.540  -0.547  0.00  0.00    +0.280 C 
ENDBRANCH  21  23
ENDBRANCH  11  21
ENDBRANCH   1   4
BRANCH   1  25
ATOM     25  O   LIG    1       -0.482   1.939  -0.965  0.00  0.00    -0.454 OA
BRANCH  25  26
ATOM     26  C   LIG    1        0.711   2.110  -0.301  0.00  0.00    +0.121 C 
ATOM     27  C   LIG    1        0.812   3.442   0.432  0.00  0.00    +0.057 C 
ATOM     28  C   LIG    1        1.784   2.227  -1.405  0.00  0.00    +0.057 C 
BRANCH  26  29
ATOM     29  C   LIG    1        1.159   0.989   0.590  0.00  0.00    +0.131 C 
BRANCH  29  30
ATOM     30  N   LIG    1        1.347  -0.188  -0.140  0.00  0.00    -0.302 NA
ATOM     31  C   LIG    1        0.255  -0.882  -0.679  0.00  0.00    +0.105 C 
BRANCH  30  32
ATOM     32  C   LIG    1        2.644  -0.729  -0.273  0.00  0.00    +0.085 C 
BRANCH  32  33
ATOM     33  C   LIG    1        3.231  -1.274   1.013  0.00  0.00    +0.028 C 
BRANCH  33  34
ATOM     34  C   LIG    1        4.603  -1.807   0.715  0.00  0.00    +0.050 C 
BRANCH  34  35
ATOM     35  C   LIG    1        5.197  -2.347   1.945  0.00  0.00    -0.040 A 
ATOM     36  C   LIG    1        5.080  -1.759   3.189  0.00  0.00    +0.004 A 
ATOM     37  C   LIG    1        5.667  -2.329   4.304  0.00  0.00    +0.000 A 
ATOM     38  C   LIG    1        6.383  -3.499   4.194  0.00  0.00    +0.000 A 
ATOM     39  C   LIG    1        6.494  -4.072   2.966  0.00  0.00    +0.000 A 
ATOM     40  C   LIG    1        5.922  -3.525   1.855  0.00  0.00    +0.004 A 
ENDBRANCH  34  35
BRANCH  34  41
ATOM     41  C   LIG    1        5.482  -0.828   0.035  0.00  0.00    -0.040 A 
ATOM     42  C   LIG    1        5.426   0.521   0.348  0.00  0.00    +0.004 A 
ATOM     43  C   LIG    1        6.274   1.368  -0.322  0.00  0.00    +0.000 A 
ATOM     44  C   LIG    1        7.161   0.888  -1.284  0.00  0.00    +0.000 A 
ATOM     45  C   LIG    1        7.199  -0.448  -1.576  0.00  0.00    +0.000 A 
ATOM     46  C   LIG    1        6.362  -1.298  -0.917  0.00  0.00    +0.004 A 
ENDBRANCH  34  41
ENDBRANCH  33  34
ENDBRANCH  32  33
ENDBRANCH  30  32
ENDBRANCH  29  30
ENDBRANCH  26  29
ENDBRANCH  25  26
ENDBRANCH   1  25
TORSDOF 14
