REMARK  Name = molecules/ZEAJXCPGHPJVNP-GFCCVEGCSA-N.pdb
REMARK                            x       y       z     vdW  Elec       q    Type
REMARK                         _______ _______ _______ _____ _____    ______ ____
ROOT
ATOM      1  C   LIG    1       -1.214   0.126  -1.812  0.00  0.00    +0.161 C 
ENDROOT
BRANCH   1   2
ATOM      2  C   LIG    1       -2.119   0.027  -0.662  0.00  0.00    -0.018 A 
ATOM      3  C   LIG    1       -2.513   1.163  -0.009  0.00  0.00    +0.006 A 
ATOM      4  C   LIG    1       -3.368   1.106   1.082  0.00  0.00    +0.000 A 
ATOM      5  C   LIG    1       -3.839  -0.107   1.529  0.00  0.00    +0.000 A 
ATOM      6  C   LIG    1       -3.453  -1.262   0.883  0.00  0.00    +0.000 A 
ATOM      7  C   LIG    1       -2.591  -1.177  -0.212  0.00  0.00    +0.006 A 
ENDBRANCH   1   2
BRANCH   1   8
ATOM      8  O   LIG    1       -1.709  -0.705  -2.816  0.00  0.00    -0.386 OA
ATOM      9  H   LIG    1       -1.329  -1.622  -2.679  0.00  0.00    +0.210 HD
ENDBRANCH   1   8
BRANCH   1  10
ATOM     10  C   LIG    1        0.203  -0.276  -1.497  0.00  0.00    +0.139 C 
BRANCH  10  11
ATOM     11  N   LIG    1        0.790   0.537  -0.465  0.00  0.00    -0.326 N 
ATOM     12  H   LIG    1        0.234   1.300  -0.031  0.00  0.00    +0.148 HD
BRANCH  11  13
ATOM     13  C   LIG    1        2.116   0.332  -0.013  0.00  0.00    +0.119 A 
ATOM     14  C   LIG    1        2.715   1.077   0.963  0.00  0.00    +0.043 A 
ATOM     15  C   LIG    1        4.017   0.828   1.362  0.00  0.00    +0.005 A 
ATOM     16  C   LIG    1        4.733  -0.195   0.766  0.00  0.00    +0.020 A 
ATOM     17  C   LIG    1        4.105  -0.939  -0.222  0.00  0.00    +0.113 A 
ATOM     18  N   LIG    1        2.841  -0.662  -0.577  0.00  0.00    -0.241 NA
ENDBRANCH  11  13
ENDBRANCH  10  11
ENDBRANCH   1  10
TORSDOF 5
