REMARK  Name = molecules/ZEHYJZXQEQOSON-SSDOTTSWSA-N.pdb
REMARK                            x       y       z     vdW  Elec       q    Type
REMARK                         _______ _______ _______ _____ _____    ______ ____
ROOT
ATOM      1  C   LIG    1        0.179   0.255   0.569  0.00  0.00    +0.146 C 
ENDROOT
BRANCH   1   2
ATOM      2  C   LIG    1        1.592   0.500   0.134  0.00  0.00    +0.032 C 
ATOM      3  C   LIG    1        2.424  -0.484  -0.071  0.00  0.00    +0.079 C 
ATOM      4 CL   LIG    1        4.068  -0.145  -0.580  0.00  0.00    -0.092 Cl
ENDBRANCH   1   2
BRANCH   1   6
ATOM      5  C   LIG    1       -1.927  -0.891  -0.090  0.00  0.00    +0.008 C 
ATOM      6  C   LIG    1       -0.518  -0.546  -0.516  0.00  0.00    +0.049 C 
ENDBRANCH   1   6
BRANCH   1   7
ATOM      7  O   LIG    1        0.253  -0.457   1.762  0.00  0.00    -0.373 OA
ATOM      8  H   LIG    1        0.504  -1.404   1.566  0.00  0.00    +0.212 HD
ENDBRANCH   1   7
BRANCH   1   9
ATOM      9  C   LIG    1       -0.536   1.501   0.767  0.00  0.00    -0.067 C 
ATOM     10  C   LIG    1       -1.117   2.554   0.935  0.00  0.00    +0.007 C 
ENDBRANCH   1   9
TORSDOF 4
