REMARK  Name = molecules/ZEKZLJVOYLTDKK-SECBINFHSA-N.pdb
REMARK                            x       y       z     vdW  Elec       q    Type
REMARK                         _______ _______ _______ _____ _____    ______ ____
ROOT
ATOM      1  N   LIG    1       -2.422   0.198  -0.921  0.00  0.00    -0.344 N 
ATOM      2  C   LIG    1       -1.518   0.506   0.053  0.00  0.00    +0.090 A 
ATOM      3  C   LIG    1       -1.808   1.349   1.098  0.00  0.00    +0.052 A 
ATOM      4  C   LIG    1       -0.879   1.652   2.090  0.00  0.00    +0.054 A 
ATOM      5  C   LIG    1        0.378   1.089   2.025  0.00  0.00    +0.148 A 
ATOM      6  F   LIG    1        1.308   1.374   2.990  0.00  0.00    -0.203 F 
ATOM      7  C   LIG    1        0.707   0.238   0.993  0.00  0.00    +0.103 A 
ATOM      8  C   LIG    1       -3.053   1.923   1.198  0.00  0.00    +0.204 A 
ATOM      9  O   LIG    1       -3.356   2.705   2.148  0.00  0.00    -0.286 OA
ATOM     10  C   LIG    1       -3.977   1.633   0.239  0.00  0.00    +0.122 A 
ATOM     11  C   LIG    1       -0.262  -0.027   0.034  0.00  0.00    +0.171 A 
ATOM     12  F   LIG    1        0.098  -0.868  -0.942  0.00  0.00    -0.201 F 
ATOM     13  C   LIG    1       -3.634   0.789  -0.776  0.00  0.00    +0.105 A 
ENDROOT
BRANCH   7  14
ATOM     14  N   LIG    1        2.003  -0.342   0.930  0.00  0.00    -0.323 N 
ATOM     15  C   LIG    1        2.344  -1.608   1.546  0.00  0.00    +0.120 C 
ATOM     16  C   LIG    1        3.054  -2.467   0.524  0.00  0.00    +0.100 C 
ATOM     17  N   LIG    1        4.127  -1.789  -0.135  0.00  0.00    -0.311 NA
ATOM     18  H   LIG    1        4.906  -1.500   0.475  0.00  0.00    +0.122 HD
ATOM     19  C   LIG    1        3.622  -0.627  -0.815  0.00  0.00    +0.068 C 
ATOM     20  C   LIG    1        4.693   0.104  -1.590  0.00  0.00    +0.025 C 
ATOM     21  C   LIG    1        3.067   0.347   0.217  0.00  0.00    +0.123 C 
ENDBRANCH   7  14
BRANCH   1  22
ATOM     22  C   LIG    1       -2.103  -0.666  -2.019  0.00  0.00    +0.118 C 
ATOM     23  C   LIG    1       -2.341  -2.130  -1.742  0.00  0.00    +0.027 C 
ENDBRANCH   1  22
BRANCH  10  24
ATOM     24  C   LIG    1       -5.324   2.226   0.308  0.00  0.00    +0.342 C 
ATOM     25  O   LIG    1       -6.169   1.958  -0.572  0.00  0.00    -0.245 OA
BRANCH  24  26
ATOM     26  O   LIG    1       -5.645   3.069   1.334  0.00  0.00    -0.477 OA
ATOM     27  H   LIG    1       -5.372   4.032   1.366  0.00  0.00    +0.295 HD
ENDBRANCH  24  26
ENDBRANCH  10  24
TORSDOF 4
