REMARK  Name = molecules/ZELCNSAUMHNSSU-ISLYRVAYSA-N.pdb
REMARK                            x       y       z     vdW  Elec       q    Type
REMARK                         _______ _______ _______ _____ _____    ______ ____
ROOT
ATOM      1  C   LIG    1       -2.276   0.180   0.158  0.00  0.00    +0.121 A 
ATOM      2  C   LIG    1       -3.065   1.272   0.491  0.00  0.00    +0.089 A 
ATOM      3  C   LIG    1       -4.435   1.072   0.556  0.00  0.00    +0.040 A 
ATOM      4  C   LIG    1       -4.998  -0.150   0.303  0.00  0.00    +0.027 A 
ATOM      5  C   LIG    1       -4.179  -1.216  -0.026  0.00  0.00    +0.047 A 
ATOM      6  C   LIG    1       -2.834  -1.041  -0.095  0.00  0.00    +0.055 A 
ENDROOT
BRANCH   4   7
ATOM      7  N   LIG    1       -6.390  -0.354   0.369  0.00  0.00    -0.358 N 
ATOM      8  H   LIG    1       -6.986   0.387   0.793  0.00  0.00    +0.142 HD
ATOM      9  H   LIG    1       -6.855  -1.206   0.016  0.00  0.00    +0.142 HD
ENDBRANCH   4   7
BRANCH   6  10
ATOM     10  N   LIG    1       -1.952  -2.122  -0.433  0.00  0.00    -0.356 N 
ATOM     11  H   LIG    1       -1.742  -2.903   0.197  0.00  0.00    +0.142 HD
ATOM     12  H   LIG    1       -1.517  -2.077  -1.383  0.00  0.00    +0.142 HD
ENDBRANCH   6  10
BRANCH   1  13
ATOM     13  N   LIG    1       -0.855   0.353   0.082  0.00  0.00    -0.147 NA
ATOM     14  N   LIG    1       -0.044  -0.581   0.259  0.00  0.00    -0.149 NA
BRANCH  14  15
ATOM     15  C   LIG    1        1.362  -0.465   0.195  0.00  0.00    +0.086 A 
ATOM     16  C   LIG    1        1.988   0.760   0.222  0.00  0.00    +0.031 A 
ATOM     17  C   LIG    1        3.366   0.868   0.160  0.00  0.00    +0.030 A 
ATOM     18  C   LIG    1        4.159  -0.244   0.069  0.00  0.00    +0.105 A 
ATOM     19  C   LIG    1        3.524  -1.472   0.043  0.00  0.00    +0.030 A 
ATOM     20  C   LIG    1        2.147  -1.596   0.104  0.00  0.00    +0.031 A 
BRANCH  18  21
ATOM     21  S   LIG    1        5.910  -0.112  -0.010  0.00  0.00    +0.056 S 
ATOM     22  O   LIG    1        6.376   1.114   0.731  0.00  0.00    -0.153 OA
ATOM     23  O   LIG    1        6.516  -1.296   0.678  0.00  0.00    -0.153 OA
BRANCH  21  24
ATOM     24  N   LIG    1        6.470   0.010  -1.622  0.00  0.00    -0.204 NA
ATOM     25  H   LIG    1        6.169   0.890  -2.054  0.00  0.00    +0.144 HD
ATOM     26  H   LIG    1        6.188  -0.792  -2.220  0.00  0.00    +0.144 HD
ENDBRANCH  21  24
ENDBRANCH  18  21
ENDBRANCH  14  15
ENDBRANCH   1  13
BRANCH   2  27
ATOM     27  C   LIG    1       -2.487   2.573   0.762  0.00  0.00    +0.339 C 
ATOM     28  O   LIG    1       -3.219   3.539   1.060  0.00  0.00    -0.245 OA
BRANCH  27  29
ATOM     29  O   LIG    1       -1.123   2.770   0.697  0.00  0.00    -0.477 OA
ATOM     30  H   LIG    1       -0.634   3.542   1.101  0.00  0.00    +0.295 HD
ENDBRANCH  27  29
ENDBRANCH   2  27
TORSDOF 8
