REMARK  Name = molecules/ZEMIJUDPLILVNQ-ZXFNITATSA-N.pdb
REMARK                            x       y       z     vdW  Elec       q    Type
REMARK                         _______ _______ _______ _____ _____    ______ ____
ROOT
ATOM      1  C   LIG    1       -0.405  -1.174   0.059  0.00  0.00    +0.201 C 
ATOM      2  C   LIG    1       -0.858  -1.742   1.346  0.00  0.00    +0.042 C 
ATOM      3  S   LIG    1        0.788  -1.922   2.162  0.00  0.00    -0.127 S 
ATOM      4  C   LIG    1        1.502  -2.574   0.629  0.00  0.00    +0.165 C 
ATOM      5  C   LIG    1        2.763  -2.015   0.120  0.00  0.00    +0.190 C 
ATOM      6  C   LIG    1        1.966  -1.926  -1.137  0.00  0.00    +0.240 C 
ATOM      7  O   LIG    1        2.186  -2.014  -2.353  0.00  0.00    -0.273 OA
ATOM      8  C   LIG    1       -1.760  -0.861   2.145  0.00  0.00    +0.025 C 
ATOM      9  C   LIG    1       -1.383  -3.125   1.141  0.00  0.00    +0.025 C 
ATOM     10  N   LIG    1        0.839  -1.694  -0.332  0.00  0.00    -0.271 N 
ENDROOT
BRANCH   5  11
ATOM     11  N   LIG    1        3.251  -0.794   0.637  0.00  0.00    -0.300 N 
ATOM     12  C   LIG    1        4.604  -0.672   1.043  0.00  0.00    +0.235 C 
ATOM     13  O   LIG    1        5.363  -1.668   0.936  0.00  0.00    -0.274 OA
ATOM     14  H   LIG    1        2.638   0.035   0.732  0.00  0.00    +0.150 HD
BRANCH  12  15
ATOM     15  C   LIG    1        5.172   0.580   1.591  0.00  0.00    +0.168 C 
BRANCH  15  16
ATOM     16  C   LIG    1        6.200   1.210   0.740  0.00  0.00    -0.022 A 
ATOM     17  C   LIG    1        6.636   2.456   1.080  0.00  0.00    +0.005 A 
ATOM     18  C   LIG    1        7.590   3.111   0.332  0.00  0.00    +0.000 A 
ATOM     19  C   LIG    1        8.122   2.501  -0.790  0.00  0.00    +0.000 A 
ATOM     20  C   LIG    1        7.669   1.246  -1.115  0.00  0.00    +0.000 A 
ATOM     21  C   LIG    1        6.700   0.578  -0.357  0.00  0.00    +0.005 A 
ENDBRANCH  15  16
BRANCH  15  22
ATOM     22  N   LIG    1        4.140   1.589   1.790  0.00  0.00    -0.316 NA
ATOM     23  H   LIG    1        4.400   2.244   2.557  0.00  0.00    +0.119 HD
ATOM     24  H   LIG    1        3.950   2.122   0.926  0.00  0.00    +0.119 HD
ENDBRANCH  15  22
ENDBRANCH  12  15
ENDBRANCH   5  11
BRANCH   1  25
ATOM     25  C   LIG    1       -1.422  -1.344  -1.034  0.00  0.00    +0.332 C 
ATOM     26  O   LIG    1       -1.056  -1.893  -2.086  0.00  0.00    -0.249 OA
BRANCH  25  27
ATOM     27  O   LIG    1       -2.732  -0.909  -0.889  0.00  0.00    -0.426 OA
BRANCH  27  28
ATOM     28  C   LIG    1       -3.624  -1.109  -1.967  0.00  0.00    +0.472 C 
BRANCH  28  29
ATOM     29  O   LIG    1       -4.910  -0.617  -1.671  0.00  0.00    -0.427 OA
BRANCH  29  30
ATOM     30  C   LIG    1       -5.087   0.724  -1.375  0.00  0.00    +0.315 C 
ATOM     31  O   LIG    1       -4.086   1.457  -1.381  0.00  0.00    -0.250 OA
BRANCH  30  32
ATOM     32  C   LIG    1       -6.408   1.311  -1.055  0.00  0.00    +0.059 C 
ATOM     33  C   LIG    1       -6.964   0.496   0.117  0.00  0.00    +0.022 C 
ATOM     34  C   LIG    1       -6.262   2.756  -0.693  0.00  0.00    +0.022 C 
ATOM     35  C   LIG    1       -7.303   1.087  -2.253  0.00  0.00    +0.022 C 
ENDBRANCH  30  32
ENDBRANCH  29  30
ENDBRANCH  28  29
ENDBRANCH  27  28
ENDBRANCH  25  27
ENDBRANCH   1  25
TORSDOF 10
