REMARK  Name = molecules/ZESRJSPZRDMNHY-YFWFAHHUSA-N.pdb
REMARK                            x       y       z     vdW  Elec       q    Type
REMARK                         _______ _______ _______ _____ _____    ______ ____
ROOT
ATOM      1  C   LIG    1       -2.128   1.172  -0.633  0.00  0.00    +0.012 C 
ATOM      2  C   LIG    1       -1.897  -0.037   0.219  0.00  0.00    -0.019 C 
ATOM      3  C   LIG    1       -1.162   0.271   1.507  0.00  0.00    +0.008 C 
ATOM      4  C   LIG    1        0.237   0.744   1.195  0.00  0.00    +0.005 C 
ATOM      5  C   LIG    1        1.023  -0.279   0.416  0.00  0.00    +0.002 C 
ATOM      6  C   LIG    1        2.416   0.196   0.159  0.00  0.00    -0.007 C 
ATOM      7  C   LIG    1        3.260  -0.292   1.332  0.00  0.00    +0.019 C 
ATOM      8  C   LIG    1        4.697   0.069   1.188  0.00  0.00    +0.080 C 
ATOM      9  C   LIG    1        5.091   0.425  -0.194  0.00  0.00    +0.156 C 
ATOM     10  O   LIG    1        6.081   1.174  -0.450  0.00  0.00    -0.293 OA
ATOM     11  C   LIG    1        4.298  -0.115  -1.286  0.00  0.00    +0.046 C 
ATOM     12  C   LIG    1        2.380   1.720   0.186  0.00  0.00    +0.016 C 
ATOM     13  C   LIG    1        2.994  -0.226  -1.112  0.00  0.00    -0.060 C 
ATOM     14  C   LIG    1        2.221  -0.784  -2.257  0.00  0.00    +0.032 C 
ATOM     15  C   LIG    1        1.047  -1.546  -1.681  0.00  0.00    +0.008 C 
ATOM     16  C   LIG    1        0.244  -0.546  -0.877  0.00  0.00    -0.003 C 
ATOM     17  C   LIG    1       -3.184  -0.755   0.409  0.00  0.00    +0.064 C 
ATOM     18  C   LIG    1       -3.279  -1.703  -0.783  0.00  0.00    +0.012 C 
ATOM     19  C   LIG    1       -1.955  -1.601  -1.516  0.00  0.00    +0.005 C 
ATOM     20  C   LIG    1       -1.058  -1.096  -0.461  0.00  0.00    -0.001 C 
ENDROOT
BRANCH  17  21
ATOM     21  C   LIG    1       -4.377   0.101   0.505  0.00  0.00    +0.162 C 
ATOM     22  O   LIG    1       -5.307  -0.023  -0.303  0.00  0.00    -0.295 OA
BRANCH  21  23
ATOM     23  C   LIG    1       -4.495   1.127   1.566  0.00  0.00    +0.230 C 
BRANCH  23  24
ATOM     24  O   LIG    1       -5.744   1.781   1.492  0.00  0.00    -0.388 OA
ATOM     25  H   LIG    1       -5.696   2.692   1.896  0.00  0.00    +0.210 HD
ENDBRANCH  23  24
ENDBRANCH  21  23
ENDBRANCH  17  21
TORSDOF 3
