REMARK  Name = molecules/ZEUITGRIYCTCEM-KRWDZBQOSA-N.pdb
REMARK                            x       y       z     vdW  Elec       q    Type
REMARK                         _______ _______ _______ _____ _____    ______ ____
ROOT
ATOM      1  O   LIG    1        0.525  -0.129   0.130  0.00  0.00    -0.483 OA
ENDROOT
BRANCH   1   2
ATOM      2  C   LIG    1        1.594   0.016  -0.712  0.00  0.00    +0.129 A 
ATOM      3  C   LIG    1        2.868  -0.220  -0.173  0.00  0.00    +0.024 A 
ATOM      4  C   LIG    1        2.988  -0.581   1.151  0.00  0.00    +0.012 A 
ATOM      5  C   LIG    1        4.242  -0.815   1.688  0.00  0.00    +0.001 A 
ATOM      6  C   LIG    1        5.347  -0.685   0.894  0.00  0.00    +0.001 A 
ATOM      7  C   LIG    1        5.205  -0.323  -0.426  0.00  0.00    +0.008 A 
ATOM      8  C   LIG    1        3.964  -0.079  -1.000  0.00  0.00    -0.014 A 
ATOM      9  C   LIG    1        3.847   0.283  -2.332  0.00  0.00    +0.009 A 
ATOM     10  C   LIG    1        2.619   0.513  -2.862  0.00  0.00    +0.004 A 
ATOM     11  C   LIG    1        1.507   0.373  -2.033  0.00  0.00    +0.046 A 
ENDBRANCH   1   2
BRANCH   1  12
ATOM     12  C   LIG    1       -0.819   0.050  -0.168  0.00  0.00    +0.211 C 
BRANCH  12  13
ATOM     13  C   LIG    1       -1.414   1.206   0.602  0.00  0.00    +0.030 A 
ATOM     14  C   LIG    1       -1.262   1.503   1.923  0.00  0.00    +0.015 A 
ATOM     15  C   LIG    1       -1.897   2.599   2.387  0.00  0.00    +0.008 A 
ATOM     16  C   LIG    1       -2.638   3.318   1.495  0.00  0.00    +0.045 A 
ATOM     17  S   LIG    1       -2.431   2.454   0.041  0.00  0.00    -0.098 S 
ENDBRANCH  12  13
BRANCH  12  18
ATOM     18  C   LIG    1       -1.648  -1.203   0.072  0.00  0.00    +0.065 C 
BRANCH  18  19
ATOM     19  C   LIG    1       -3.076  -0.888  -0.281  0.00  0.00    +0.084 C 
BRANCH  19  20
ATOM     20  N   LIG    1       -3.954  -2.019  -0.093  0.00  0.00    -0.319 NA
ATOM     21  H   LIG    1       -3.995  -2.287   0.926  0.00  0.00    +0.122 HD
ATOM     22  C   LIG    1       -5.287  -1.617  -0.543  0.00  0.00    +0.101 C 
ENDBRANCH  19  20
ENDBRANCH  18  19
ENDBRANCH  12  18
ENDBRANCH   1  12
TORSDOF 6
