REMARK  Name = molecules/ZEWQUBUPAILYHI-UHFFFAOYSA-N.pdb
REMARK                            x       y       z     vdW  Elec       q    Type
REMARK                         _______ _______ _______ _____ _____    ______ ____
ROOT
ATOM      1  N   LIG    1       -2.149  -0.131   0.570  0.00  0.00    -0.298 N 
ATOM      2  C   LIG    1       -2.762  -1.300   1.156  0.00  0.00    +0.048 A 
ATOM      3  C   LIG    1       -1.953  -2.197   1.852  0.00  0.00    +0.024 A 
ATOM      4  C   LIG    1       -2.485  -3.355   2.415  0.00  0.00    +0.002 A 
ATOM      5  C   LIG    1       -3.835  -3.665   2.304  0.00  0.00    +0.001 A 
ATOM      6  C   LIG    1       -4.600  -2.768   1.613  0.00  0.00    +0.017 A 
ATOM      7  C   LIG    1       -4.084  -1.649   1.072  0.00  0.00    +0.034 A 
ATOM      8  S   LIG    1       -5.219  -0.549   0.238  0.00  0.00    -0.086 S 
ATOM      9  C   LIG    1       -4.237   0.769  -0.438  0.00  0.00    +0.034 A 
ATOM     10  C   LIG    1       -4.845   1.708  -1.207  0.00  0.00    +0.017 A 
ATOM     11  C   LIG    1       -4.166   2.751  -1.764  0.00  0.00    +0.013 A 
ATOM     12  C   LIG    1       -2.803   2.842  -1.531  0.00  0.00    +0.057 A 
ATOM     13  C   LIG    1       -2.188   1.862  -0.734  0.00  0.00    +0.037 A 
ATOM     14  C   LIG    1       -2.885   0.808  -0.172  0.00  0.00    +0.048 A 
ENDROOT
BRANCH  12  15
ATOM     15  C   LIG    1       -2.026   3.945  -2.159  0.00  0.00    +0.417 C 
ATOM     16  F   LIG    1       -1.809   4.923  -1.228  0.00  0.00    -0.166 F 
ATOM     17  F   LIG    1       -0.817   3.393  -2.582  0.00  0.00    -0.166 F 
ATOM     18  F   LIG    1       -2.756   4.383  -3.252  0.00  0.00    -0.166 F 
ENDBRANCH  12  15
BRANCH   1  19
ATOM     19  C   LIG    1       -0.720   0.020   0.834  0.00  0.00    +0.112 C 
BRANCH  19  20
ATOM     20  C   LIG    1        0.186  -0.851   0.035  0.00  0.00    +0.035 C 
BRANCH  20  21
ATOM     21  C   LIG    1        1.589  -0.595   0.586  0.00  0.00    +0.086 C 
BRANCH  21  26
ATOM     22  C   LIG    1        5.312   1.562  -0.038  0.00  0.00    +0.105 C 
ATOM     23  N   LIG    1        4.871   0.365  -0.708  0.00  0.00    -0.303 NA
ATOM     24  C   LIG    1        5.048  -0.821   0.084  0.00  0.00    +0.099 C 
ATOM     25  C   LIG    1        3.797  -1.275   0.782  0.00  0.00    +0.100 C 
ATOM     26  N   LIG    1        2.637  -1.304  -0.057  0.00  0.00    -0.300 NA
ATOM     27  C   LIG    1        2.962  -0.881  -1.381  0.00  0.00    +0.100 C 
ATOM     28  C   LIG    1        3.590   0.503  -1.337  0.00  0.00    +0.099 C 
ENDBRANCH  21  26
ENDBRANCH  20  21
ENDBRANCH  19  20
ENDBRANCH   1  19
TORSDOF 5
