REMARK  Name = molecules/ZFPNOTAGQWNERF-UHFFFAOYSA-N.pdb
REMARK                            x       y       z     vdW  Elec       q    Type
REMARK                         _______ _______ _______ _____ _____    ______ ____
ROOT
ATOM      1  C   LIG    1       -0.415  -0.259  -0.017  0.00  0.00    +0.041 A 
ATOM      2  C   LIG    1       -1.594   0.541  -0.074  0.00  0.00    -0.005 A 
ATOM      3  C   LIG    1       -1.458   2.006   0.049  0.00  0.00    +0.039 C 
ATOM      4  C   LIG    1       -2.733   2.744  -0.109  0.00  0.00    +0.005 C 
ATOM      5  C   LIG    1       -3.946   2.038   0.415  0.00  0.00    +0.006 C 
ATOM      6  C   LIG    1       -4.103   0.717  -0.319  0.00  0.00    +0.056 C 
ATOM      7  C   LIG    1       -2.814  -0.062  -0.251  0.00  0.00    +0.047 A 
ATOM      8  N   LIG    1       -2.964  -1.383  -0.374  0.00  0.00    -0.251 NA
ATOM      9  C   LIG    1       -1.853  -2.130  -0.320  0.00  0.00    +0.073 A 
ATOM     10  C   LIG    1       -2.022  -3.504  -0.447  0.00  0.00    +0.028 A 
ATOM     11  C   LIG    1       -0.928  -4.342  -0.398  0.00  0.00    +0.002 A 
ATOM     12  C   LIG    1        0.325  -3.801  -0.223  0.00  0.00    +0.001 A 
ATOM     13  C   LIG    1        0.529  -2.427  -0.092  0.00  0.00    +0.012 A 
ATOM     14  C   LIG    1       -0.577  -1.618  -0.144  0.00  0.00    +0.021 A 
ENDROOT
BRANCH   1  15
ATOM     15  N   LIG    1        0.782   0.425   0.175  0.00  0.00    -0.343 N 
ATOM     16  H   LIG    1        0.682   1.508   0.362  0.00  0.00    +0.146 HD
BRANCH  15  17
ATOM     17  C   LIG    1        2.160   0.083   0.215  0.00  0.00    +0.101 C 
BRANCH  17  18
ATOM     18  C   LIG    1        3.004   1.394   0.398  0.00  0.00    +0.018 C 
BRANCH  18  19
ATOM     19  C   LIG    1        4.443   1.012   0.437  0.00  0.00    -0.002 C 
ATOM     20  C   LIG    1        4.911   0.317  -0.818  0.00  0.00    +0.004 C 
ENDBRANCH  18  19
ENDBRANCH  17  18
ENDBRANCH  15  17
ENDBRANCH   1  15
TORSDOF 4
