REMARK  Name = molecules/ZFSXZJXLKAJIGS-UHFFFAOYSA-N.pdb
REMARK                            x       y       z     vdW  Elec       q    Type
REMARK                         _______ _______ _______ _____ _____    ______ ____
ROOT
ATOM      1  N   LIG    1        0.643   0.622  -0.335  0.00  0.00    -0.269 N 
ATOM      2  C   LIG    1       -0.623   0.107   0.025  0.00  0.00    +0.308 C 
ATOM      3  O   LIG    1       -0.720  -0.985   0.617  0.00  0.00    -0.252 OA
ATOM      4  N   LIG    1       -1.810   0.820  -0.279  0.00  0.00    -0.269 N 
ATOM      5  H   LIG    1       -1.653   1.737  -0.785  0.00  0.00    +0.156 HD
ATOM      6  H   LIG    1        0.673   1.567  -0.840  0.00  0.00    +0.156 HD
ENDROOT
BRANCH   4   7
ATOM      7  C   LIG    1       -3.087   0.369   0.056  0.00  0.00    +0.035 A 
ATOM      8  C   LIG    1       -3.415  -0.588   0.979  0.00  0.00    +0.025 A 
ATOM      9  C   LIG    1       -4.757  -0.924   1.228  0.00  0.00    +0.022 A 
ATOM     10  C   LIG    1       -5.800  -0.319   0.568  0.00  0.00    +0.041 A 
ATOM     11 CL   LIG    1       -7.460  -0.763   0.902  0.00  0.00    -0.084 Cl
ATOM     12  C   LIG    1       -5.485   0.645  -0.363  0.00  0.00    +0.022 A 
ATOM     13  C   LIG    1       -4.178   0.971  -0.604  0.00  0.00    +0.025 A 
ENDBRANCH   4   7
BRANCH   1  14
ATOM     14  C   LIG    1        1.860  -0.005  -0.086  0.00  0.00    +0.035 A 
ATOM     15  C   LIG    1        2.023  -1.308   0.285  0.00  0.00    +0.025 A 
ATOM     16  C   LIG    1        3.268  -1.889   0.505  0.00  0.00    +0.022 A 
ATOM     17  C   LIG    1        4.391  -1.138   0.347  0.00  0.00    +0.053 A 
ATOM     18 CL   LIG    1        6.011  -1.782   0.602  0.00  0.00    -0.083 Cl
ATOM     19  C   LIG    1        4.295   0.188  -0.028  0.00  0.00    +0.075 A 
ATOM     20  C   LIG    1        3.059   0.735  -0.238  0.00  0.00    +0.037 A 
BRANCH  19  21
ATOM     21  C   LIG    1        5.517   1.024  -0.205  0.00  0.00    +0.419 C 
ATOM     22  F   LIG    1        6.246   1.100   0.964  0.00  0.00    -0.166 F 
ATOM     23  F   LIG    1        5.121   2.303  -0.517  0.00  0.00    -0.166 F 
ATOM     24  F   LIG    1        6.222   0.511  -1.256  0.00  0.00    -0.166 F 
ENDBRANCH  19  21
ENDBRANCH   1  14
TORSDOF 3
