REMARK  Name = molecules/ZFWYZPJOMMIRAM-DMMVPMRXSA-P.pdb
REMARK                            x       y       z     vdW  Elec       q    Type
REMARK                         _______ _______ _______ _____ _____    ______ ____
ROOT
ATOM      1  C   LIG    1        2.737   0.911  -3.180  0.00  0.00    +0.063 C 
ATOM      2  C   LIG    1        3.281   0.572  -1.770  0.00  0.00    +0.018 A 
ATOM      3  N   LIG    1        3.224   1.220  -0.627  0.00  0.00    -0.344 N 
ATOM      4  C   LIG    1        3.894   0.661   0.469  0.00  0.00    +0.048 A 
ATOM      5  C   LIG    1        3.880   1.366   1.681  0.00  0.00    +0.026 C 
ATOM      6  C   LIG    1        4.553   0.872   2.788  0.00  0.00    -0.002 C 
ATOM      7  C   LIG    1        5.232  -0.305   2.694  0.00  0.00    -0.018 C 
ATOM      8  C   LIG    1        5.262  -1.010   1.518  0.00  0.00    +0.057 C 
ATOM      9  C   LIG    1        4.598  -0.531   0.405  0.00  0.00    +0.005 A 
ATOM     10  C   LIG    1        4.665  -1.246  -0.816  0.00  0.00    +0.035 A 
ATOM     11  N   LIG    1        5.427  -2.448  -0.702  0.00  0.00    -0.344 N 
ATOM     12  H   LIG    1        6.404  -2.480  -0.248  0.00  0.00    +0.146 HD
ATOM     13  C   LIG    1        5.064  -3.806  -1.145  0.00  0.00    +0.101 C 
ATOM     14  C   LIG    1        4.822  -4.727   0.001  0.00  0.00    +0.019 C 
ATOM     15  C   LIG    1        3.460  -4.544   0.631  0.00  0.00    +0.002 C 
ATOM     16  C   LIG    1        2.497  -5.560   0.008  0.00  0.00    +0.000 C 
ATOM     17  C   LIG    1        1.149  -5.504   0.679  0.00  0.00    +0.000 C 
ATOM     18  C   LIG    1        0.067  -5.333  -0.377  0.00  0.00    +0.000 C 
ATOM     19  C   LIG    1       -1.126  -4.700   0.279  0.00  0.00    +0.000 C 
ATOM     20  C   LIG    1       -2.397  -5.012  -0.496  0.00  0.00    +0.001 C 
ATOM     21  C   LIG    1       -3.564  -4.544   0.349  0.00  0.00    +0.015 C 
ATOM     22  C   LIG    1       -4.324  -3.429  -0.328  0.00  0.00    +0.082 C 
ATOM     23  N   LIG    1       -4.800  -2.436   0.680  0.00  0.00    -0.302 NA
ATOM     24  H   LIG    1       -5.209  -3.005   1.492  0.00  0.00    +0.123 HD
ATOM     25  C   LIG    1       -4.637  -1.029   0.340  0.00  0.00    +0.093 C 
ATOM     26  C   LIG    1       -3.480  -0.425   0.735  0.00  0.00    +0.021 C 
ATOM     27  C   LIG    1       -3.054   0.934   0.513  0.00  0.00    +0.006 C 
ATOM     28  C   LIG    1       -1.764   1.091   1.368  0.00  0.00    +0.060 C 
ATOM     29  N   LIG    1       -3.845   1.761  -0.174  0.00  0.00    -0.304 N 
ATOM     30  C   LIG    1       -5.069   1.240  -0.610  0.00  0.00    +0.039 A 
ATOM     31  C   LIG    1       -6.065   1.983  -1.235  0.00  0.00    +0.024 A 
ATOM     32  C   LIG    1       -7.315   1.626  -1.652  0.00  0.00    +0.002 A 
ATOM     33  C   LIG    1       -7.680   0.355  -1.440  0.00  0.00    +0.000 A 
ATOM     34  C   LIG    1       -6.753  -0.430  -0.823  0.00  0.00    +0.008 A 
ATOM     35  C   LIG    1       -3.245   3.065  -0.625  0.00  0.00    +0.110 C 
ATOM     36  C   LIG    1       -3.618   4.248   0.170  0.00  0.00    +0.019 C 
ATOM     37  C   LIG    1       -2.802   4.559   1.372  0.00  0.00    +0.002 C 
ATOM     38  C   LIG    1       -1.336   4.668   1.179  0.00  0.00    +0.000 C 
ATOM     39  C   LIG    1       -0.830   6.076   0.949  0.00  0.00    +0.000 C 
ATOM     40  C   LIG    1        0.685   6.120   0.948  0.00  0.00    +0.000 C 
ATOM     41  C   LIG    1        1.274   4.800   0.519  0.00  0.00    +0.000 C 
ATOM     42  C   LIG    1        2.791   4.821   0.536  0.00  0.00    +0.002 C 
ATOM     43  C   LIG    1        3.361   3.680  -0.278  0.00  0.00    +0.022 C 
ATOM     44  C   LIG    1       -5.475  -0.117  -0.375  0.00  0.00    +0.000 A 
ATOM     45  C   LIG    1        2.516   2.441  -0.189  0.00  0.00    +0.122 C 
ATOM     46  C   LIG    1        4.014  -0.665  -1.823  0.00  0.00    +0.044 A 
ENDROOT
TORSDOF 0
