REMARK  Name = molecules/ZFXYFBGIUFBOJW-UHFFFAOYSA-N.pdb
REMARK                            x       y       z     vdW  Elec       q    Type
REMARK                         _______ _______ _______ _____ _____    ______ ____
ROOT
ATOM      1  O   LIG    1       -1.417  -2.588   0.484  0.00  0.00    -0.265 OA
ATOM      2  C   LIG    1       -0.868  -1.476   0.306  0.00  0.00    +0.284 A 
ATOM      3  C   LIG    1        0.501  -1.388   0.414  0.00  0.00    +0.170 A 
ATOM      4  N   LIG    1        1.504  -2.252   0.685  0.00  0.00    -0.229 NA
ATOM      5  C   LIG    1        2.680  -1.597   0.659  0.00  0.00    +0.198 A 
ATOM      6  N   LIG    1        2.453  -0.303   0.371  0.00  0.00    -0.330 N 
ATOM      7  H   LIG    1        3.133   0.485   0.272  0.00  0.00    +0.168 HD
ATOM      8  C   LIG    1        1.135  -0.166   0.221  0.00  0.00    +0.147 A 
ATOM      9  N   LIG    1        0.359   0.887  -0.068  0.00  0.00    -0.281 N 
ATOM     10  C   LIG    1       -0.981   0.785  -0.171  0.00  0.00    +0.333 A 
ATOM     11  O   LIG    1       -1.624   1.831  -0.446  0.00  0.00    -0.246 OA
ATOM     12  C   LIG    1        0.999   2.180  -0.275  0.00  0.00    +0.155 C 
ATOM     13  N   LIG    1       -1.620  -0.405   0.015  0.00  0.00    -0.262 N 
ATOM     14  C   LIG    1       -3.043  -0.425  -0.112  0.00  0.00    +0.157 C 
ENDROOT
TORSDOF 0
