REMARK  Name = molecules/ZGJHIFYEQJEUKA-UHFFFAOYSA-N.pdb
REMARK                            x       y       z     vdW  Elec       q    Type
REMARK                         _______ _______ _______ _____ _____    ______ ____
ROOT
ATOM      1  C   LIG    1       -1.887   0.234   0.330  0.00  0.00    +0.078 A 
ATOM      2  C   LIG    1       -2.443   1.387   0.868  0.00  0.00    +0.018 A 
ATOM      3  C   LIG    1       -3.804   1.598   0.904  0.00  0.00    +0.021 A 
ATOM      4  C   LIG    1       -4.664   0.660   0.402  0.00  0.00    +0.044 A 
ATOM      5 CL   LIG    1       -6.392   0.842   0.406  0.00  0.00    -0.083 Cl
ATOM      6  C   LIG    1       -4.113  -0.477  -0.128  0.00  0.00    +0.066 A 
ATOM      7  C   LIG    1       -2.754  -0.704  -0.172  0.00  0.00    +0.130 A 
ENDROOT
BRANCH   1   8
ATOM      8  C   LIG    1       -0.429   0.101   0.337  0.00  0.00    +0.248 C 
ATOM      9  O   LIG    1        0.235   1.075   0.847  0.00  0.00    -0.270 OA
ATOM     10  N   LIG    1        0.330  -0.955  -0.142  0.00  0.00    -0.311 N 
ATOM     11  H   LIG    1       -0.111  -1.790  -0.566  0.00  0.00    +0.149 HD
BRANCH  10  12
ATOM     12  C   LIG    1        1.771  -0.975  -0.090  0.00  0.00    +0.104 C 
BRANCH  12  13
ATOM     13  C   LIG    1        2.318   0.159  -0.906  0.00  0.00    +0.018 C 
BRANCH  13  14
ATOM     14  C   LIG    1        3.855   0.158  -0.874  0.00  0.00    -0.002 C 
ATOM     15  C   LIG    1        4.262   0.310   0.563  0.00  0.00    +0.004 C 
ENDBRANCH  13  14
ENDBRANCH  12  13
ENDBRANCH  10  12
ENDBRANCH   1   8
BRANCH   7  16
ATOM     16  O   LIG    1       -2.268  -1.870  -0.719  0.00  0.00    -0.506 OA
ATOM     17  H   LIG    1       -2.826  -2.601  -1.105  0.00  0.00    +0.292 HD
ENDBRANCH   7  16
TORSDOF 5
