REMARK  Name = molecules/ZGNRRVAPHPANFI-UHFFFAOYSA-N.pdb
REMARK                            x       y       z     vdW  Elec       q    Type
REMARK                         _______ _______ _______ _____ _____    ______ ____
ROOT
ATOM      1  C   LIG    1        1.883   0.053   3.097  0.00  0.00    +0.155 C 
ATOM      2  N   LIG    1        2.070   0.008   1.655  0.00  0.00    -0.280 N 
ATOM      3  C   LIG    1        3.267  -0.202   1.121  0.00  0.00    +0.333 A 
ATOM      4  O   LIG    1        4.290  -0.373   1.871  0.00  0.00    -0.246 OA
ATOM      5  N   LIG    1        3.493  -0.249  -0.203  0.00  0.00    -0.262 N 
ATOM      6  C   LIG    1        4.828  -0.503  -0.738  0.00  0.00    +0.157 C 
ATOM      7  C   LIG    1        2.430  -0.070  -1.014  0.00  0.00    +0.282 A 
ATOM      8  C   LIG    1        1.159   0.151  -0.496  0.00  0.00    +0.153 A 
ATOM      9  N   LIG    1       -0.048   0.337  -1.071  0.00  0.00    -0.309 N 
ATOM     10  C   LIG    1       -0.946   0.484  -0.086  0.00  0.00    +0.200 A 
ATOM     11  N   LIG    1       -0.312   0.394   1.105  0.00  0.00    -0.196 NA
ATOM     12  C   LIG    1       -0.306   0.371  -2.486  0.00  0.00    +0.152 C 
ATOM     13  O   LIG    1        2.592  -0.101  -2.245  0.00  0.00    -0.265 OA
ATOM     14  C   LIG    1        1.007   0.185   0.850  0.00  0.00    +0.170 A 
ENDROOT
BRANCH  10  15
ATOM     15  N   LIG    1       -2.362   0.661  -0.283  0.00  0.00    -0.302 N 
ATOM     16  C   LIG    1       -2.982   1.937  -0.088  0.00  0.00    +0.132 C 
BRANCH  15  17
ATOM     17  C   LIG    1       -3.126  -0.517  -0.651  0.00  0.00    +0.135 C 
BRANCH  17  18
ATOM     18  C   LIG    1       -4.008  -0.985   0.482  0.00  0.00    +0.174 C 
BRANCH  18  19
ATOM     19  O   LIG    1       -4.704  -2.117   0.048  0.00  0.00    -0.393 OA
ATOM     20  H   LIG    1       -4.252  -2.955   0.364  0.00  0.00    +0.209 HD
ENDBRANCH  18  19
ENDBRANCH  17  18
ENDBRANCH  15  17
ENDBRANCH  10  15
TORSDOF 4
