REMARK  Name = molecules/ZGSDGGRVFIYKKE-OXQOHEQNSA-N.pdb
REMARK                            x       y       z     vdW  Elec       q    Type
REMARK                         _______ _______ _______ _____ _____    ______ ____
ROOT
ATOM      1  C   LIG    1        1.858  -0.131  -0.039  0.00  0.00    -0.000 C 
ATOM      2  C   LIG    1        0.566  -0.336   0.022  0.00  0.00    -0.076 C 
ATOM      3  C   LIG    1        0.122  -1.660   0.563  0.00  0.00    +0.028 C 
ATOM      4  C   LIG    1       -1.327  -1.735   0.884  0.00  0.00    -0.011 C 
ATOM      5  C   LIG    1       -2.149  -0.814  -0.024  0.00  0.00    -0.065 C 
ATOM      6  C   LIG    1       -3.589  -1.050   0.352  0.00  0.00    -0.015 C 
ATOM      7  C   LIG    1       -4.542  -0.060  -0.228  0.00  0.00    -0.003 C 
ATOM      8  C   LIG    1       -3.983   1.339  -0.057  0.00  0.00    -0.018 C 
ATOM      9  C   LIG    1       -2.621   1.351  -0.720  0.00  0.00    -0.075 C 
ATOM     10  N   LIG    1       -1.728   0.536   0.093  0.00  0.00    +0.383 N 
ATOM     11  C   LIG    1       -1.716   1.036   1.454  0.00  0.00    -0.091 C 
ATOM     12  C   LIG    1       -0.396   0.686  -0.438  0.00  0.00    -0.043 C 
ENDROOT
BRANCH   1  13
ATOM     13  C   LIG    1        2.792  -1.182   0.432  0.00  0.00    +0.020 A 
ATOM     14  C   LIG    1        3.960  -0.996   1.129  0.00  0.00    +0.016 A 
ATOM     15  C   LIG    1        4.666  -2.081   1.450  0.00  0.00    +0.008 A 
ATOM     16  C   LIG    1        4.167  -3.297   1.058  0.00  0.00    +0.046 A 
ATOM     17  S   LIG    1        2.726  -2.870   0.253  0.00  0.00    -0.097 S 
ENDBRANCH   1  13
BRANCH   1  18
ATOM     18  C   LIG    1        2.443   1.119  -0.567  0.00  0.00    +0.020 A 
ATOM     19  S   LIG    1        2.072   2.763  -0.370  0.00  0.00    -0.097 S 
ATOM     20  C   LIG    1        3.299   3.450  -1.325  0.00  0.00    +0.046 A 
ATOM     21  C   LIG    1        3.983   2.358  -1.784  0.00  0.00    +0.008 A 
ATOM     22  C   LIG    1        3.541   1.146  -1.392  0.00  0.00    +0.016 A 
ENDBRANCH   1  18
TORSDOF 2
