REMARK  Name = molecules/ZHKNLJLMDFQVHJ-RUZDIDTESA-N.pdb
REMARK                            x       y       z     vdW  Elec       q    Type
REMARK                         _______ _______ _______ _____ _____    ______ ____
ROOT
ATOM      1  N   LIG    1       -0.478  -1.403   0.809  0.00  0.00    -0.281 N 
ENDROOT
BRANCH   1   2
ATOM      2  C   LIG    1        0.177  -2.665   0.593  0.00  0.00    +0.291 A 
ATOM      3  O   LIG    1       -0.139  -3.781   1.269  0.00  0.00    -0.424 OA
ATOM      4  C   LIG    1        0.584  -4.789   0.895  0.00  0.00    +0.157 A 
ATOM      5  C   LIG    1        0.657  -6.131   1.266  0.00  0.00    +0.048 A 
ATOM      6  C   LIG    1        1.563  -6.972   0.659  0.00  0.00    +0.004 A 
ATOM      7  C   LIG    1        2.429  -6.548  -0.325  0.00  0.00    +0.002 A 
ATOM      8  C   LIG    1        2.346  -5.218  -0.682  0.00  0.00    +0.031 A 
ATOM      9  C   LIG    1        1.448  -4.351  -0.091  0.00  0.00    +0.111 A 
ATOM     10  N   LIG    1        1.147  -3.051  -0.227  0.00  0.00    -0.195 NA
ENDBRANCH   1   2
BRANCH   1  11
ATOM     11  C   LIG    1       -1.666  -1.384   1.656  0.00  0.00    +0.144 C 
BRANCH  11  14
ATOM     12  C   LIG    1       -2.466   2.106   2.617  0.00  0.00    +0.004 A 
ATOM     13  C   LIG    1       -1.853   0.879   2.655  0.00  0.00    +0.005 A 
ATOM     14  C   LIG    1       -2.233  -0.040   1.695  0.00  0.00    -0.027 A 
ATOM     15  C   LIG    1       -3.189   0.291   0.753  0.00  0.00    +0.050 A 
ATOM     16  C   LIG    1       -3.793   1.536   0.736  0.00  0.00    +0.122 A 
ATOM     17  C   LIG    1       -3.434   2.463   1.676  0.00  0.00    +0.046 A 
BRANCH  16  18
ATOM     18  O   LIG    1       -4.722   1.773  -0.224  0.00  0.00    -0.478 OA
BRANCH  18  19
ATOM     19  C   LIG    1       -5.443   2.955  -0.385  0.00  0.00    +0.281 C 
BRANCH  19  20
ATOM     20  C   LIG    1       -6.937   2.672  -0.100  0.00  0.00    +0.053 C 
ATOM     21  C   LIG    1       -7.463   1.634  -1.054  0.00  0.00    +0.008 C 
ENDBRANCH  19  20
BRANCH  19  22
ATOM     22  C   LIG    1       -5.335   3.372  -1.817  0.00  0.00    +0.346 C 
ATOM     23  O   LIG    1       -4.681   2.727  -2.676  0.00  0.00    -0.247 OA
BRANCH  22  24
ATOM     24  O   LIG    1       -5.980   4.522  -2.234  0.00  0.00    -0.478 OA
ATOM     25  H   LIG    1       -6.828   4.785  -1.750  0.00  0.00    +0.295 HD
ENDBRANCH  22  24
ENDBRANCH  19  22
ENDBRANCH  18  19
ENDBRANCH  16  18
ENDBRANCH  11  14
ENDBRANCH   1  11
BRANCH   1  26
ATOM     26  C   LIG    1       -0.055  -0.188   0.216  0.00  0.00    +0.113 C 
BRANCH  26  27
ATOM     27  C   LIG    1        1.323  -0.240  -0.356  0.00  0.00    +0.060 C 
BRANCH  27  28
ATOM     28  C   LIG    1        2.312  -0.489   0.773  0.00  0.00    +0.230 C 
BRANCH  28  29
ATOM     29  O   LIG    1        3.597  -0.631   0.353  0.00  0.00    -0.492 OA
BRANCH  29  30
ATOM     30  C   LIG    1        4.521   0.149  -0.262  0.00  0.00    +0.121 A 
ATOM     31  C   LIG    1        5.776  -0.441  -0.552  0.00  0.00    +0.049 A 
ATOM     32  C   LIG    1        6.748   0.291  -1.173  0.00  0.00    +0.049 A 
ATOM     33  C   LIG    1        6.567   1.603  -1.542  0.00  0.00    +0.120 A 
ATOM     34  C   LIG    1        5.350   2.176  -1.262  0.00  0.00    +0.049 A 
ATOM     35  C   LIG    1        4.327   1.460  -0.625  0.00  0.00    +0.049 A 
BRANCH  33  36
ATOM     36  O   LIG    1        7.557   2.333  -2.171  0.00  0.00    -0.495 OA
ATOM     37  C   LIG    1        7.298   3.673  -2.517  0.00  0.00    +0.277 C 
ENDBRANCH  33  36
ENDBRANCH  29  30
ENDBRANCH  28  29
ENDBRANCH  27  28
ENDBRANCH  26  27
ENDBRANCH   1  26
TORSDOF 14
