REMARK  Name = molecules/ZHNUMLOCJMCLIT-UHFFFAOYSA-N.pdb
REMARK                            x       y       z     vdW  Elec       q    Type
REMARK                         _______ _______ _______ _____ _____    ______ ____
ROOT
ATOM      1  C   LIG    1       -0.043   0.260   0.297  0.00  0.00    +0.139 C 
ATOM      2  S   LIG    1        0.093  -0.652  -1.037  0.00  0.00    -0.018 S 
ENDROOT
BRANCH   1   3
ATOM      3  N   LIG    1        1.130   0.782   0.895  0.00  0.00    -0.297 N 
ATOM      4  H   LIG    1        1.092   1.443   1.716  0.00  0.00    +0.154 HD
BRANCH   3   5
ATOM      5  C   LIG    1        2.414   0.443   0.416  0.00  0.00    +0.035 A 
ATOM      6  C   LIG    1        3.423   1.420   0.438  0.00  0.00    +0.043 A 
ATOM      7  C   LIG    1        4.703   1.170   0.029  0.00  0.00    +0.044 A 
ATOM      8 CL   LIG    1        5.905   2.457   0.092  0.00  0.00    -0.083 Cl
ATOM      9  C   LIG    1        4.999  -0.092  -0.419  0.00  0.00    +0.040 A 
ATOM     10  C   LIG    1        4.051  -1.083  -0.461  0.00  0.00    +0.044 A 
ATOM     11 CL   LIG    1        4.373  -2.702  -1.021  0.00  0.00    -0.083 Cl
ATOM     12  C   LIG    1        2.750  -0.796  -0.035  0.00  0.00    +0.043 A 
ENDBRANCH   3   5
ENDBRANCH   1   3
BRANCH   1  13
ATOM     13  N   LIG    1       -1.329   0.585   0.795  0.00  0.00    -0.297 N 
ATOM     14  H   LIG    1       -1.434   1.249   1.627  0.00  0.00    +0.154 HD
BRANCH  13  15
ATOM     15  C   LIG    1       -2.509   0.056   0.228  0.00  0.00    +0.033 A 
ATOM     16  C   LIG    1       -3.657   0.874   0.200  0.00  0.00    +0.026 A 
ATOM     17  C   LIG    1       -4.830   0.450  -0.357  0.00  0.00    +0.040 A 
ATOM     18  C   LIG    1       -4.908  -0.800  -0.905  0.00  0.00    +0.124 A 
ATOM     19  C   LIG    1       -3.806  -1.627  -0.895  0.00  0.00    +0.040 A 
ATOM     20  F   LIG    1       -6.087  -1.205  -1.456  0.00  0.00    -0.205 F 
ATOM     21  C   LIG    1       -2.613  -1.182  -0.323  0.00  0.00    +0.026 A 
ENDBRANCH  13  15
ENDBRANCH   1  13
TORSDOF 4
