REMARK  Name = molecules/ZIAOVIPSKUPPQW-UHFFFAOYSA-N.pdb
REMARK                            x       y       z     vdW  Elec       q    Type
REMARK                         _______ _______ _______ _____ _____    ______ ____
ROOT
ATOM      1  C   LIG    1       -0.692  -0.818  -0.117  0.00  0.00    +0.204 A 
ATOM      2  C   LIG    1        0.176   0.090   0.499  0.00  0.00    +0.295 A 
ATOM      3  O   LIG    1        0.030   0.419   1.709  0.00  0.00    -0.264 OA
ATOM      4  N   LIG    1        1.195   0.641  -0.180  0.00  0.00    -0.305 N 
ATOM      5  C   LIG    1        1.356   0.295  -1.468  0.00  0.00    +0.090 A 
ATOM      6  C   LIG    1        0.523  -0.596  -2.112  0.00  0.00    +0.034 A 
ATOM      7  C   LIG    1       -0.536  -1.180  -1.436  0.00  0.00    +0.104 A 
ENDROOT
BRANCH   7   8
ATOM      8  C   LIG    1       -1.441  -2.151  -2.124  0.00  0.00    +0.421 C 
ATOM      9  F   LIG    1       -1.415  -3.386  -1.493  0.00  0.00    -0.166 F 
ATOM     10  F   LIG    1       -2.729  -1.703  -2.112  0.00  0.00    -0.166 F 
ATOM     11  F   LIG    1       -1.063  -2.299  -3.446  0.00  0.00    -0.166 F 
ENDBRANCH   7   8
BRANCH   1  12
ATOM     12  O   LIG    1       -1.720  -1.356   0.622  0.00  0.00    -0.450 OA
BRANCH  12  13
ATOM     13  C   LIG    1       -2.975  -0.794   0.767  0.00  0.00    +0.131 A 
ATOM     14  C   LIG    1       -3.912  -1.458   1.515  0.00  0.00    +0.066 A 
ATOM     15  C   LIG    1       -5.198  -0.944   1.701  0.00  0.00    +0.046 A 
ATOM     16 CL   LIG    1       -6.400  -1.783   2.652  0.00  0.00    -0.083 Cl
ATOM     17  C   LIG    1       -5.509   0.255   1.112  0.00  0.00    +0.039 A 
ATOM     18  C   LIG    1       -4.582   0.953   0.348  0.00  0.00    +0.057 A 
ATOM     19  C   LIG    1       -3.322   0.422   0.182  0.00  0.00    +0.065 A 
BRANCH  18  20
ATOM     20  C   LIG    1       -4.887   2.194  -0.268  0.00  0.00    +0.099 C 
ATOM     21  N   LIG    1       -5.130   3.219  -0.764  0.00  0.00    -0.191 NA
ENDBRANCH  18  20
ENDBRANCH  12  13
ENDBRANCH   1  12
BRANCH   4  22
ATOM     22  C   LIG    1        2.114   1.592   0.442  0.00  0.00    +0.201 C 
BRANCH  22  23
ATOM     23  C   LIG    1        3.270   0.919   1.054  0.00  0.00    +0.154 A 
ATOM     24  N   LIG    1        3.356   0.469   2.308  0.00  0.00    -0.155 NA
ATOM     25  N   LIG    1        4.542  -0.082   2.515  0.00  0.00    -0.227 N 
ATOM     26  H   LIG    1        4.912  -0.524   3.395  0.00  0.00    +0.194 HD
ATOM     27  C   LIG    1        5.248   0.008   1.375  0.00  0.00    +0.344 A 
ATOM     28  O   LIG    1        6.419  -0.411   1.202  0.00  0.00    -0.245 OA
ATOM     29  N   LIG    1        4.439   0.637   0.468  0.00  0.00    -0.281 N 
ATOM     30  C   LIG    1        4.861   0.912  -0.882  0.00  0.00    +0.155 C 
ENDBRANCH  22  23
ENDBRANCH   4  22
TORSDOF 6
