REMARK  Name = molecules/ZIXNZOBDFKSQTC-KRWDZBQOSA-N.pdb
REMARK                            x       y       z     vdW  Elec       q    Type
REMARK                         _______ _______ _______ _____ _____    ______ ____
ROOT
ATOM      1  C   LIG    1        0.247  -0.296  -0.672  0.00  0.00    +0.179 C 
ATOM      2  C   LIG    1       -1.001   0.448  -0.368  0.00  0.00    +0.026 A 
ATOM      3  C   LIG    1       -1.745   0.324   0.799  0.00  0.00    +0.041 A 
ATOM      4  N   LIG    1       -1.384  -0.561   1.870  0.00  0.00    -0.284 N 
ATOM      5  H   LIG    1       -1.906  -0.406   2.762  0.00  0.00    +0.155 HD
ATOM      6  C   LIG    1       -0.411  -1.605   1.855  0.00  0.00    +0.231 C 
ATOM      7  O   LIG    1        0.168  -1.853   2.967  0.00  0.00    -0.274 OA
ATOM      8  C   LIG    1       -0.045  -2.394   0.661  0.00  0.00    +0.184 C 
ATOM      9  C   LIG    1       -2.886   1.055   0.998  0.00  0.00    +0.025 A 
ATOM     10  C   LIG    1       -3.258   1.927  -0.033  0.00  0.00    +0.022 A 
ATOM     11  C   LIG    1       -2.518   2.052  -1.197  0.00  0.00    +0.041 A 
ATOM     12 CL   LIG    1       -3.066   3.179  -2.444  0.00  0.00    -0.084 Cl
ATOM     13  C   LIG    1       -1.370   1.305  -1.377  0.00  0.00    +0.030 A 
ATOM     14  N   LIG    1        0.283  -1.657  -0.437  0.00  0.00    -0.256 NA
ATOM     15  C   LIG    1       -0.309  -2.199  -1.642  0.00  0.00    +0.116 C 
ATOM     16  C   LIG    1        0.249  -1.277  -2.694  0.00  0.00    +0.178 C 
ATOM     17  O   LIG    1        0.580  -0.123  -2.042  0.00  0.00    -0.349 OA
ENDROOT
BRANCH   1  24
ATOM     18 CL   LIG    1        2.941  -1.494  -0.966  0.00  0.00    -0.083 Cl
ATOM     19  C   LIG    1        2.644  -0.105   0.036  0.00  0.00    +0.049 A 
ATOM     20  C   LIG    1        3.651   0.518   0.749  0.00  0.00    +0.020 A 
ATOM     21  C   LIG    1        3.356   1.610   1.525  0.00  0.00    +0.001 A 
ATOM     22  C   LIG    1        2.080   2.121   1.628  0.00  0.00    +0.000 A 
ATOM     23  C   LIG    1        1.093   1.465   0.894  0.00  0.00    +0.009 A 
ATOM     24  C   LIG    1        1.333   0.368   0.101  0.00  0.00    +0.022 A 
ENDBRANCH   1  24
TORSDOF 1
