REMARK  Name = molecules/ZJIJAJXFLBMLCK-UHFFFAOYSA-N.pdb
REMARK                            x       y       z     vdW  Elec       q    Type
REMARK                         _______ _______ _______ _____ _____    ______ ____
ROOT
ATOM      1  C   LIG    1       -0.647  -0.231   0.560  0.00  0.00    +0.387 C 
ATOM      2  F   LIG    1       -0.675   0.164   1.883  0.00  0.00    -0.192 F 
ATOM      3  F   LIG    1       -0.746  -1.617   0.562  0.00  0.00    -0.192 F 
ENDROOT
BRANCH   1   4
ATOM      4  C   LIG    1        0.645   0.203  -0.116  0.00  0.00    +0.387 C 
ATOM      5  F   LIG    1        0.655   1.592  -0.061  0.00  0.00    -0.192 F 
ATOM      6  F   LIG    1        0.631  -0.173  -1.431  0.00  0.00    -0.192 F 
BRANCH   4   7
ATOM      7  C   LIG    1        1.821  -0.370   0.647  0.00  0.00    +0.409 C 
ATOM      8  F   LIG    1        1.782   0.227   1.916  0.00  0.00    -0.189 F 
ATOM      9  F   LIG    1        1.659  -1.716   0.810  0.00  0.00    -0.189 F 
BRANCH   7  10
ATOM     10  C   LIG    1        3.137   0.011   0.045  0.00  0.00    +0.460 C 
ATOM     11  F   LIG    1        4.139  -0.467   0.854  0.00  0.00    -0.165 F 
ATOM     12  F   LIG    1        3.221   1.407   0.103  0.00  0.00    -0.165 F 
ATOM     13  F   LIG    1        3.290  -0.417  -1.249  0.00  0.00    -0.165 F 
ENDBRANCH   7  10
ENDBRANCH   4   7
ENDBRANCH   1   4
BRANCH   1  14
ATOM     14  C   LIG    1       -1.781   0.361  -0.232  0.00  0.00    +0.409 C 
ATOM     15  F   LIG    1       -1.625   1.712  -0.371  0.00  0.00    -0.189 F 
ATOM     16  F   LIG    1       -1.716  -0.197  -1.504  0.00  0.00    -0.189 F 
BRANCH  14  17
ATOM     17  C   LIG    1       -3.130  -0.005   0.350  0.00  0.00    +0.460 C 
ATOM     18  F   LIG    1       -3.265   0.406   1.651  0.00  0.00    -0.165 F 
ATOM     19  F   LIG    1       -3.255  -1.381   0.341  0.00  0.00    -0.165 F 
ATOM     20  F   LIG    1       -4.142   0.492  -0.442  0.00  0.00    -0.165 F 
ENDBRANCH  14  17
ENDBRANCH   1  14
TORSDOF 5
