REMARK  Name = molecules/ZJJXGWJIGJFDTL-UHFFFAOYSA-N.pdb
REMARK                            x       y       z     vdW  Elec       q    Type
REMARK                         _______ _______ _______ _____ _____    ______ ____
ROOT
ATOM      1  C   LIG    1        0.139  -1.338  -1.276  0.00  0.00    +0.109 A 
ATOM      2  C   LIG    1        0.180  -2.530  -0.568  0.00  0.00    +0.029 A 
ATOM      3  C   LIG    1        0.659  -2.593   0.723  0.00  0.00    +0.005 A 
ATOM      4  C   LIG    1        1.128  -1.474   1.391  0.00  0.00    -0.046 A 
ATOM      5  C   LIG    1        1.082  -0.273   0.664  0.00  0.00    +0.005 A 
ATOM      6  C   LIG    1        0.603  -0.215  -0.625  0.00  0.00    +0.029 A 
ENDROOT
BRANCH   1   7
ATOM      7  S   LIG    1       -0.464  -1.262  -2.915  0.00  0.00    +0.076 S 
ATOM      8  O   LIG    1       -0.139  -2.548  -3.662  0.00  0.00    -0.150 OA
ATOM      9  O   LIG    1        0.188  -0.154  -3.692  0.00  0.00    -0.150 OA
BRANCH   7  10
ATOM     10  N   LIG    1       -2.163  -1.006  -2.859  0.00  0.00    -0.169 N 
ATOM     11  C   LIG    1       -2.800  -0.275  -1.825  0.00  0.00    +0.319 C 
ATOM     12  O   LIG    1       -2.098   0.208  -0.909  0.00  0.00    -0.251 OA
ATOM     13  N   LIG    1       -4.206  -0.085  -1.811  0.00  0.00    -0.295 N 
ATOM     14  H   LIG    1       -4.773  -0.499  -2.587  0.00  0.00    +0.151 HD
ATOM     15  H   LIG    1       -2.786  -1.405  -3.624  0.00  0.00    +0.178 HD
BRANCH  13  16
ATOM     16  C   LIG    1       -4.905   0.641  -0.796  0.00  0.00    +0.074 C 
ATOM     17  C   LIG    1       -5.865  -0.253  -0.013  0.00  0.00    +0.022 C 
ATOM     18  C   LIG    1       -6.196   0.538   1.259  0.00  0.00    +0.002 C 
ATOM     19  C   LIG    1       -7.027   1.724   0.792  0.00  0.00    +0.000 C 
ATOM     20  C   LIG    1       -6.274   2.581  -0.174  0.00  0.00    +0.002 C 
ATOM     21  C   LIG    1       -5.686   1.808  -1.316  0.00  0.00    +0.022 C 
ENDBRANCH  13  16
ENDBRANCH   7  10
ENDBRANCH   1   7
BRANCH   4  22
ATOM     22  C   LIG    1        1.579  -1.492   2.778  0.00  0.00    +0.054 C 
BRANCH  22  23
ATOM     23  C   LIG    1        2.945  -1.923   3.051  0.00  0.00    +0.109 C 
BRANCH  23  24
ATOM     24  N   LIG    1        3.984  -1.192   2.438  0.00  0.00    -0.310 N 
ATOM     25  H   LIG    1        4.599  -0.616   3.114  0.00  0.00    +0.149 HD
ATOM     26  C   LIG    1        4.338  -1.099   1.076  0.00  0.00    +0.264 C 
ATOM     27  O   LIG    1        3.694  -1.754   0.224  0.00  0.00    -0.268 OA
BRANCH  26  28
ATOM     28  C   LIG    1        5.437  -0.268   0.581  0.00  0.00    +0.143 A 
ATOM     29  C   LIG    1        6.228   0.503   1.391  0.00  0.00    +0.144 A 
ATOM     30  N   LIG    1        7.246   1.268   0.889  0.00  0.00    -0.256 NA
ATOM     31  C   LIG    1        7.506   1.289  -0.423  0.00  0.00    +0.056 A 
ATOM     32  C   LIG    1        8.607   2.110  -1.009  0.00  0.00    +0.067 C 
ATOM     33  C   LIG    1        6.718   0.518  -1.250  0.00  0.00    +0.134 A 
ATOM     34  N   LIG    1        5.720  -0.231  -0.755  0.00  0.00    -0.247 NA
ENDBRANCH  26  28
ENDBRANCH  23  24
ENDBRANCH  22  23
ENDBRANCH   4  22
TORSDOF 7
