REMARK  Name = molecules/ZKFQEACEUNWPMT-NDEPHWFRSA-N.pdb
REMARK                            x       y       z     vdW  Elec       q    Type
REMARK                         _______ _______ _______ _____ _____    ______ ____
ROOT
ATOM      1  C   LIG    1       -1.573  -0.562  -0.284  0.00  0.00    +0.132 C 
ATOM      2  C   LIG    1       -2.863  -0.368   0.401  0.00  0.00    +0.104 C 
ATOM      3  C   LIG    1       -4.027  -0.857  -0.340  0.00  0.00    +0.088 C 
ATOM      4  C   LIG    1       -3.882  -1.419  -1.521  0.00  0.00    +0.103 C 
ATOM      5  N   LIG    1       -2.616  -1.579  -2.132  0.00  0.00    -0.209 N 
ATOM      6  H   LIG    1       -2.510  -2.035  -3.088  0.00  0.00    +0.298 HD
ATOM      7  C   LIG    1       -5.075  -1.927  -2.296  0.00  0.00    +0.090 C 
ATOM      8  C   LIG    1       -1.453  -1.132  -1.477  0.00  0.00    +0.269 C 
ENDROOT
BRANCH   2   9
ATOM      9  C   LIG    1       -3.033   1.094   0.691  0.00  0.00    -0.033 A 
ATOM     10  C   LIG    1       -3.130   1.612   1.962  0.00  0.00    +0.037 A 
ATOM     11  C   LIG    1       -3.286   2.960   2.209  0.00  0.00    +0.126 A 
ATOM     12  C   LIG    1       -3.346   3.826   1.117  0.00  0.00    +0.033 A 
ATOM     13  C   LIG    1       -3.254   3.354  -0.170  0.00  0.00    +0.003 A 
ATOM     14  C   LIG    1       -3.099   1.996  -0.364  0.00  0.00    +0.005 A 
BRANCH  11  15
ATOM     15  N   LIG    1       -3.384   3.471   3.532  0.00  0.00    +0.056 N 
ATOM     16  O   LIG    1       -3.326   2.673   4.478  0.00  0.00    -0.126 OA
ATOM     17  O   LIG    1       -3.537   4.811   3.730  0.00  0.00    -0.126 OA
ENDBRANCH  11  15
ENDBRANCH   2   9
BRANCH   8  18
ATOM     18  N   LIG    1       -0.152  -1.282  -2.074  0.00  0.00    -0.251 N 
ATOM     19  H   LIG    1        0.437  -2.087  -1.847  0.00  0.00    +0.288 HD
ATOM     20  H   LIG    1        0.161  -0.558  -2.729  0.00  0.00    +0.288 HD
ENDBRANCH   8  18
BRANCH   1  21
ATOM     21  C   LIG    1       -0.322  -0.106   0.370  0.00  0.00    +0.344 C 
ATOM     22  O   LIG    1       -0.336   0.444   1.499  0.00  0.00    -0.245 OA
BRANCH  21  23
ATOM     23  O   LIG    1        0.868  -0.282  -0.257  0.00  0.00    -0.455 OA
BRANCH  23  24
ATOM     24  C   LIG    1        2.130   0.096   0.235  0.00  0.00    +0.205 C 
ATOM     25  C   LIG    1        3.112  -1.044   0.068  0.00  0.00    +0.131 C 
ATOM     26  N   LIG    1        4.066  -0.153  -0.538  0.00  0.00    -0.284 NA
ATOM     27  C   LIG    1        3.024   0.803  -0.751  0.00  0.00    +0.131 C 
BRANCH  26  28
ATOM     28  C   LIG    1        5.091   0.213   0.417  0.00  0.00    +0.117 C 
BRANCH  28  29
ATOM     29  C   LIG    1        5.773  -1.030   0.855  0.00  0.00    -0.026 A 
ATOM     30  C   LIG    1        6.094  -1.248   2.188  0.00  0.00    +0.005 A 
ATOM     31  C   LIG    1        6.721  -2.415   2.550  0.00  0.00    +0.000 A 
ATOM     32  C   LIG    1        7.035  -3.373   1.604  0.00  0.00    +0.000 A 
ATOM     33  C   LIG    1        6.716  -3.158   0.280  0.00  0.00    +0.000 A 
ATOM     34  C   LIG    1        6.078  -1.973  -0.100  0.00  0.00    +0.005 A 
ENDBRANCH  28  29
BRANCH  28  35
ATOM     35  C   LIG    1        6.086   1.164  -0.096  0.00  0.00    -0.026 A 
ATOM     36  C   LIG    1        6.500   2.229   0.712  0.00  0.00    +0.005 A 
ATOM     37  C   LIG    1        7.427   3.157   0.289  0.00  0.00    +0.000 A 
ATOM     38  C   LIG    1        7.989   3.068  -0.965  0.00  0.00    +0.000 A 
ATOM     39  C   LIG    1        7.592   2.026  -1.772  0.00  0.00    +0.000 A 
ATOM     40  C   LIG    1        6.660   1.093  -1.345  0.00  0.00    +0.005 A 
ENDBRANCH  28  35
ENDBRANCH  26  28
ENDBRANCH  23  24
ENDBRANCH  21  23
ENDBRANCH   1  21
BRANCH   3  41
ATOM     41  C   LIG    1       -5.388  -0.718   0.248  0.00  0.00    +0.340 C 
ATOM     42  O   LIG    1       -5.510  -0.172   1.392  0.00  0.00    -0.245 OA
BRANCH  41  43
ATOM     43  O   LIG    1       -6.518  -1.141  -0.366  0.00  0.00    -0.459 OA
BRANCH  43  44
ATOM     44  C   LIG    1       -7.821  -1.045   0.119  0.00  0.00    +0.171 C 
ATOM     45  C   LIG    1       -8.355  -2.470   0.280  0.00  0.00    +0.052 C 
ATOM     46  C   LIG    1       -8.759  -0.326  -0.818  0.00  0.00    +0.052 C 
ENDBRANCH  43  44
ENDBRANCH  41  43
ENDBRANCH   3  41
TORSDOF 12
