REMARK  Name = molecules/ZKIAIYBUSXZPLP-UHFFFAOYSA-N.pdb
REMARK                            x       y       z     vdW  Elec       q    Type
REMARK                         _______ _______ _______ _____ _____    ______ ____
ROOT
ATOM      1  C   LIG    1       -0.097  -0.133  -0.317  0.00  0.00    +0.084 C 
ENDROOT
BRANCH   1   3
ATOM      2  C   LIG    1       -1.936   0.685  -1.450  0.00  0.00    +0.103 C 
ATOM      3  N   LIG    1       -1.358   0.316  -0.151  0.00  0.00    -0.299 NA
ATOM      4  C   LIG    1       -2.170   0.378   0.944  0.00  0.00    +0.103 C 
ATOM      5  C   LIG    1       -3.547   1.005   0.649  0.00  0.00    +0.120 C 
ATOM      6  N   LIG    1       -4.114   0.568  -0.583  0.00  0.00    -0.327 N 
ATOM      7  C   LIG    1       -3.264  -0.058  -1.585  0.00  0.00    +0.120 C 
BRANCH   6   8
ATOM      8  C   LIG    1       -5.494   0.746  -0.811  0.00  0.00    +0.038 A 
ATOM      9  C   LIG    1       -6.442  -0.172  -0.358  0.00  0.00    +0.010 A 
ATOM     10  C   LIG    1       -6.210  -1.276   0.393  0.00  0.00    +0.018 A 
ATOM     11  C   LIG    1       -7.282  -2.046   0.730  0.00  0.00    +0.046 A 
ATOM     12  S   LIG    1       -8.581  -1.215  -0.004  0.00  0.00    -0.097 S 
ATOM     13  C   LIG    1       -7.730   0.085  -0.719  0.00  0.00    +0.021 A 
ATOM     14  C   LIG    1       -8.096   1.196  -1.496  0.00  0.00    +0.016 A 
ATOM     15  C   LIG    1       -7.139   2.093  -1.930  0.00  0.00    +0.003 A 
ATOM     16  C   LIG    1       -5.852   1.827  -1.563  0.00  0.00    +0.024 A 
ENDBRANCH   6   8
ENDBRANCH   1   3
BRANCH   1  17
ATOM     17  C   LIG    1        0.844  -0.639   0.681  0.00  0.00    +0.019 C 
BRANCH  17  18
ATOM     18  C   LIG    1        1.191   0.290   1.826  0.00  0.00    +0.042 C 
BRANCH  18  19
ATOM     19  C   LIG    1        2.407  -0.398   2.553  0.00  0.00    +0.229 C 
BRANCH  19  20
ATOM     20  O   LIG    1        3.444  -0.467   1.764  0.00  0.00    -0.492 OA
BRANCH  20  21
ATOM     21  C   LIG    1        4.464  -0.535   0.986  0.00  0.00    +0.122 A 
ATOM     22  C   LIG    1        5.626   0.205   1.335  0.00  0.00    +0.072 A 
ATOM     23  C   LIG    1        6.758   0.199   0.556  0.00  0.00    +0.053 A 
ATOM     24  N   LIG    1        7.844   0.939   0.928  0.00  0.00    -0.322 N 
ATOM     25  H   LIG    1        7.769   1.482   1.811  0.00  0.00    +0.169 HD
ATOM     26  C   LIG    1        8.964   0.987   0.203  0.00  0.00    +0.249 A 
ATOM     27  O   LIG    1        9.971   1.687   0.572  0.00  0.00    -0.268 OA
ATOM     28  C   LIG    1        8.993   0.246  -0.962  0.00  0.00    +0.071 A 
ATOM     29  C   LIG    1        7.928  -0.511  -1.371  0.00  0.00    +0.015 A 
ATOM     30  C   LIG    1        6.784  -0.542  -0.605  0.00  0.00    -0.001 A 
ATOM     31  C   LIG    1        5.686  -1.269  -0.972  0.00  0.00    +0.013 A 
ATOM     32  C   LIG    1        4.563  -1.259  -0.188  0.00  0.00    +0.046 A 
ENDBRANCH  20  21
ENDBRANCH  19  20
ENDBRANCH  18  19
ENDBRANCH  17  18
ENDBRANCH   1  17
TORSDOF 7
