REMARK  Name = molecules/ZKLPARSLTMPFCP-NRFANRHFSA-N.pdb
REMARK                            x       y       z     vdW  Elec       q    Type
REMARK                         _______ _______ _______ _____ _____    ______ ____
ROOT
ATOM      1  C   LIG    1       -1.860   0.021  -0.430  0.00  0.00    +0.117 C 
ENDROOT
BRANCH   1   2
ATOM      2  C   LIG    1       -2.540   1.341  -0.587  0.00  0.00    -0.026 A 
ATOM      3  C   LIG    1       -3.049   1.992   0.513  0.00  0.00    +0.007 A 
ATOM      4  C   LIG    1       -3.669   3.201   0.346  0.00  0.00    +0.020 A 
ATOM      5  C   LIG    1       -3.790   3.774  -0.898  0.00  0.00    +0.041 A 
ATOM      6 CL   LIG    1       -4.591   5.333  -1.101  0.00  0.00    -0.084 Cl
ATOM      7  C   LIG    1       -3.291   3.151  -2.028  0.00  0.00    +0.020 A 
ATOM      8  C   LIG    1       -2.674   1.935  -1.819  0.00  0.00    +0.007 A 
ENDBRANCH   1   2
BRANCH   1   9
ATOM      9  N   LIG    1       -0.941   0.032   0.696  0.00  0.00    -0.289 NA
ATOM     10  C   LIG    1       -0.346  -1.272   0.793  0.00  0.00    +0.100 C 
ATOM     11  C   LIG    1        1.132  -1.236   1.062  0.00  0.00    +0.100 C 
ATOM     12  N   LIG    1        1.786  -0.376   0.169  0.00  0.00    -0.298 NA
ATOM     13  C   LIG    1        1.109   0.734  -0.359  0.00  0.00    +0.100 C 
ATOM     14  C   LIG    1       -0.009   1.101   0.607  0.00  0.00    +0.100 C 
BRANCH  12  15
ATOM     15  C   LIG    1        3.154  -0.562  -0.106  0.00  0.00    +0.112 C 
BRANCH  15  16
ATOM     16  C   LIG    1        3.929  -0.231   1.151  0.00  0.00    +0.176 C 
BRANCH  16  17
ATOM     17  O   LIG    1        5.280  -0.370   1.054  0.00  0.00    -0.367 OA
BRANCH  17  18
ATOM     18  C   LIG    1        5.881   0.416   0.108  0.00  0.00    +0.280 C 
BRANCH  18  19
ATOM     19  C   LIG    1        7.357   0.152   0.140  0.00  0.00    +0.331 C 
ATOM     20  O   LIG    1        8.142   0.750  -0.637  0.00  0.00    -0.248 OA
BRANCH  19  21
ATOM     21  O   LIG    1        7.884  -0.753   1.022  0.00  0.00    -0.479 OA
ATOM     22  H   LIG    1        7.452  -1.668   1.107  0.00  0.00    +0.295 HD
ENDBRANCH  19  21
ENDBRANCH  18  19
ENDBRANCH  17  18
ENDBRANCH  16  17
ENDBRANCH  15  16
ENDBRANCH  12  15
ENDBRANCH   1   9
BRANCH   1  23
ATOM     23  C   LIG    1       -2.782  -1.113  -0.400  0.00  0.00    -0.026 A 
ATOM     24  C   LIG    1       -3.435  -1.479   0.764  0.00  0.00    +0.005 A 
ATOM     25  C   LIG    1       -4.296  -2.545   0.779  0.00  0.00    +0.000 A 
ATOM     26  C   LIG    1       -4.554  -3.301  -0.353  0.00  0.00    +0.000 A 
ATOM     27  C   LIG    1       -3.905  -2.938  -1.515  0.00  0.00    +0.000 A 
ATOM     28  C   LIG    1       -3.032  -1.859  -1.537  0.00  0.00    +0.005 A 
ENDBRANCH   1  23
TORSDOF 9
