REMARK  Name = molecules/ZKSIPEYIAHUPNM-ZEQRLZLVSA-N.pdb
REMARK                            x       y       z     vdW  Elec       q    Type
REMARK                         _______ _______ _______ _____ _____    ______ ____
ROOT
ATOM      1  C   LIG    1        0.901  -0.075   0.387  0.00  0.00    +0.100 C 
ENDROOT
BRANCH   1   2
ATOM      2  N   LIG    1        1.527  -0.351   1.637  0.00  0.00    -0.298 NA
ATOM      3  C   LIG    1        1.038   0.378   2.758  0.00  0.00    +0.105 C 
BRANCH   2   4
ATOM      4  C   LIG    1        2.973  -0.058   1.484  0.00  0.00    +0.094 C 
BRANCH   4   5
ATOM      5  C   LIG    1        3.664  -0.075   2.790  0.00  0.00    +0.019 C 
ATOM      6  C   LIG    1        3.765  -1.376   3.495  0.00  0.00    +0.005 C 
ENDBRANCH   4   5
BRANCH   4   7
ATOM      7  C   LIG    1        3.596  -0.907   0.445  0.00  0.00    +0.251 C 
BRANCH   7   8
ATOM      8  O   LIG    1        4.909  -0.780   0.161  0.00  0.00    -0.460 OA
BRANCH   8   9
ATOM      9  C   LIG    1        6.112  -1.033   0.645  0.00  0.00    +0.339 C 
ATOM     10  O   LIG    1        6.257  -1.601   1.731  0.00  0.00    -0.245 OA
BRANCH   9  14
ATOM     11  C   LIG    1        9.657   0.051  -1.422  0.00  0.00    +0.204 A 
ATOM     12  C   LIG    1        9.736  -0.592  -0.218  0.00  0.00    +0.166 A 
ATOM     13  C   LIG    1        8.539  -0.927   0.422  0.00  0.00    +0.064 A 
ATOM     14  C   LIG    1        7.320  -0.634  -0.117  0.00  0.00    +0.066 A 
ATOM     15  C   LIG    1        7.247   0.012  -1.328  0.00  0.00    +0.064 A 
ATOM     16  C   LIG    1        8.436   0.352  -1.976  0.00  0.00    +0.166 A 
BRANCH  16  17
ATOM     17  O   LIG    1        8.402   1.000  -3.190  0.00  0.00    -0.491 OA
ATOM     18  C   LIG    1        7.166   1.322  -3.783  0.00  0.00    +0.277 C 
ENDBRANCH  16  17
BRANCH  11  19
ATOM     19  O   LIG    1       10.813   0.402  -2.090  0.00  0.00    -0.488 OA
ATOM     20  C   LIG    1       11.370  -0.535  -3.007  0.00  0.00    +0.277 C 
ENDBRANCH  11  19
BRANCH  12  21
ATOM     21  O   LIG    1       10.972  -0.886   0.323  0.00  0.00    -0.491 OA
ATOM     22  C   LIG    1       10.980  -1.558   1.583  0.00  0.00    +0.277 C 
ENDBRANCH  12  21
ENDBRANCH   9  14
ENDBRANCH   8   9
ENDBRANCH   7   8
ENDBRANCH   4   7
ENDBRANCH   2   4
ENDBRANCH   1   2
BRANCH   1  23
ATOM     23  C   LIG    1       -0.584  -0.175   0.337  0.00  0.00    +0.100 C 
BRANCH  23  24
ATOM     24  N   LIG    1       -1.336   0.697   1.154  0.00  0.00    -0.298 NA
ATOM     25  C   LIG    1       -1.029   2.092   0.996  0.00  0.00    +0.105 C 
BRANCH  24  26
ATOM     26  C   LIG    1       -2.762   0.434   1.116  0.00  0.00    +0.094 C 
BRANCH  26  27
ATOM     27  C   LIG    1       -3.375   1.329   2.168  0.00  0.00    +0.019 C 
ATOM     28  C   LIG    1       -4.876   1.188   2.276  0.00  0.00    +0.005 C 
ENDBRANCH  26  27
BRANCH  26  29
ATOM     29  C   LIG    1       -3.360   0.620  -0.233  0.00  0.00    +0.251 C 
BRANCH  29  30
ATOM     30  O   LIG    1       -4.746   0.321  -0.215  0.00  0.00    -0.460 OA
BRANCH  30  31
ATOM     31  C   LIG    1       -5.566   0.377  -1.316  0.00  0.00    +0.339 C 
ATOM     32  O   LIG    1       -5.068   0.716  -2.414  0.00  0.00    -0.245 OA
BRANCH  31  33
ATOM     33  C   LIG    1       -6.985   0.056  -1.254  0.00  0.00    +0.066 A 
ATOM     34  C   LIG    1       -7.621  -0.306  -0.068  0.00  0.00    +0.064 A 
ATOM     35  C   LIG    1       -8.954  -0.608  -0.035  0.00  0.00    +0.166 A 
ATOM     36  C   LIG    1       -9.708  -0.562  -1.185  0.00  0.00    +0.204 A 
ATOM     37  C   LIG    1       -9.121  -0.210  -2.370  0.00  0.00    +0.166 A 
ATOM     38  C   LIG    1       -7.781   0.089  -2.380  0.00  0.00    +0.064 A 
BRANCH  37  39
ATOM     39  O   LIG    1       -9.880  -0.164  -3.527  0.00  0.00    -0.491 OA
ATOM     40  C   LIG    1       -9.242   0.200  -4.730  0.00  0.00    +0.277 C 
ENDBRANCH  37  39
BRANCH  36  41
ATOM     41  O   LIG    1      -11.052  -0.869  -1.140  0.00  0.00    -0.488 OA
ATOM     42  C   LIG    1      -11.977   0.173  -0.904  0.00  0.00    +0.277 C 
ENDBRANCH  36  41
BRANCH  35  43
ATOM     43  O   LIG    1       -9.572  -0.964   1.146  0.00  0.00    -0.491 OA
ATOM     44  C   LIG    1       -8.810  -1.007   2.332  0.00  0.00    +0.277 C 
ENDBRANCH  35  43
ENDBRANCH  31  33
ENDBRANCH  30  31
ENDBRANCH  29  30
ENDBRANCH  26  29
ENDBRANCH  24  26
ENDBRANCH  23  24
ENDBRANCH   1  23
TORSDOF 21
