REMARK  Name = molecules/ZKUKMWMSYCIYRD-ZXFNITATSA-N.pdb
REMARK                            x       y       z     vdW  Elec       q    Type
REMARK                         _______ _______ _______ _____ _____    ______ ____
ROOT
ATOM      1  C   LIG    1       -1.578  -0.908   0.662  0.00  0.00    +0.201 C 
ATOM      2  N   LIG    1       -0.830   0.239   1.095  0.00  0.00    -0.271 N 
ATOM      3  C   LIG    1       -0.272   1.254   1.907  0.00  0.00    +0.240 C 
ATOM      4  O   LIG    1       -0.507   1.720   3.051  0.00  0.00    -0.273 OA
ATOM      5  C   LIG    1        0.757   1.616   0.893  0.00  0.00    +0.190 C 
ATOM      6  C   LIG    1       -0.112   0.831  -0.019  0.00  0.00    +0.165 C 
ATOM      7  S   LIG    1        0.621  -0.716  -0.690  0.00  0.00    -0.127 S 
ATOM      8  C   LIG    1       -0.645  -1.861  -0.045  0.00  0.00    +0.042 C 
ATOM      9  C   LIG    1       -0.071  -2.909   0.840  0.00  0.00    +0.025 C 
ATOM     10  C   LIG    1       -1.312  -2.538  -1.231  0.00  0.00    +0.025 C 
ENDROOT
BRANCH   5  11
ATOM     11  N   LIG    1        2.079   1.159   1.168  0.00  0.00    -0.300 N 
ATOM     12  H   LIG    1        2.239   0.132   1.339  0.00  0.00    +0.150 HD
ATOM     13  C   LIG    1        3.171   2.060   1.220  0.00  0.00    +0.235 C 
ATOM     14  O   LIG    1        2.963   3.280   1.022  0.00  0.00    -0.274 OA
BRANCH  13  15
ATOM     15  C   LIG    1        4.544   1.614   1.500  0.00  0.00    +0.168 C 
BRANCH  15  16
ATOM     16  C   LIG    1        5.099   0.665   0.515  0.00  0.00    -0.022 A 
ATOM     17  C   LIG    1        6.423   0.291   0.704  0.00  0.00    +0.005 A 
ATOM     18  C   LIG    1        7.056  -0.594  -0.141  0.00  0.00    +0.000 A 
ATOM     19  C   LIG    1        6.356  -1.123  -1.204  0.00  0.00    +0.000 A 
ATOM     20  C   LIG    1        5.026  -0.769  -1.423  0.00  0.00    +0.000 A 
ATOM     21  C   LIG    1        4.410   0.131  -0.549  0.00  0.00    +0.005 A 
ENDBRANCH  15  16
BRANCH  15  22
ATOM     22  N   LIG    1        5.440   2.762   1.680  0.00  0.00    -0.316 NA
ATOM     23  H   LIG    1        4.891   3.626   1.909  0.00  0.00    +0.119 HD
ATOM     24  H   LIG    1        5.999   2.946   0.829  0.00  0.00    +0.119 HD
ENDBRANCH  15  22
ENDBRANCH  13  15
ENDBRANCH   5  11
BRANCH   1  25
ATOM     25  C   LIG    1       -2.711  -0.473  -0.156  0.00  0.00    +0.330 C 
ATOM     26  O   LIG    1       -2.893   0.751  -0.366  0.00  0.00    -0.249 OA
BRANCH  25  27
ATOM     27  O   LIG    1       -3.620  -1.360  -0.728  0.00  0.00    -0.455 OA
BRANCH  27  28
ATOM     28  C   LIG    1       -4.685  -0.858  -1.503  0.00  0.00    +0.310 C 
BRANCH  28  29
ATOM     29  C   LIG    1       -5.514   0.034  -0.661  0.00  0.00    +0.187 A 
ATOM     30  O   LIG    1       -5.309   0.323   0.601  0.00  0.00    -0.392 OA
ATOM     31  C   LIG    1       -6.228   1.144   1.049  0.00  0.00    +0.521 A 
ATOM     32  O   LIG    1       -6.264   1.574   2.213  0.00  0.00    -0.202 OA
ATOM     33  O   LIG    1       -7.038   1.382   0.045  0.00  0.00    -0.396 OA
ATOM     34  C   LIG    1       -6.649   0.736  -1.008  0.00  0.00    +0.151 A 
ATOM     35  C   LIG    1       -7.249   0.701  -2.363  0.00  0.00    +0.090 C 
ENDBRANCH  28  29
ENDBRANCH  27  28
ENDBRANCH  25  27
ENDBRANCH   1  25
TORSDOF 8
