REMARK  Name = molecules/ZLFQARCCMWUSQE-WMPKNSHKSA-N.pdb
REMARK                            x       y       z     vdW  Elec       q    Type
REMARK                         _______ _______ _______ _____ _____    ______ ____
ROOT
ATOM      1  N   LIG    1       -1.239  -0.704   0.667  0.00  0.00    -0.297 NA
ATOM      2  C   LIG    1       -0.106  -1.526   0.678  0.00  0.00    +0.100 C 
ATOM      3  C   LIG    1        1.075  -0.624   0.957  0.00  0.00    +0.100 C 
ATOM      4  N   LIG    1        1.308   0.238  -0.144  0.00  0.00    -0.297 NA
ATOM      5  C   LIG    1        0.095   0.954  -0.553  0.00  0.00    +0.100 C 
ATOM      6  C   LIG    1       -1.111   0.631   0.241  0.00  0.00    +0.100 C 
ENDROOT
BRANCH   1   7
ATOM      7  C   LIG    1       -2.535  -1.244   0.705  0.00  0.00    +0.125 C 
BRANCH   7   8
ATOM      8  C   LIG    1       -2.942  -2.018  -0.500  0.00  0.00    +0.247 C 
BRANCH   8   9
ATOM      9  O   LIG    1       -4.326  -2.379  -0.310  0.00  0.00    -0.463 OA
BRANCH   9  10
ATOM     10  C   LIG    1       -5.245  -1.354  -0.294  0.00  0.00    +0.314 C 
ATOM     11  O   LIG    1       -4.905  -0.179  -0.419  0.00  0.00    -0.250 OA
BRANCH  10  12
ATOM     12  C   LIG    1       -6.774  -1.712  -0.130  0.00  0.00    +0.125 C 
ATOM     13  C   LIG    1       -6.865  -2.826  -1.157  0.00  0.00    +0.024 C 
BRANCH  12  14
ATOM     14  C   LIG    1       -7.382  -0.431  -0.524  0.00  0.00    -0.026 A 
ATOM     15  C   LIG    1       -8.027   0.405   0.331  0.00  0.00    -0.014 A 
ATOM     16  C   LIG    1       -8.386  -0.012   1.609  0.00  0.00    +0.009 A 
ATOM     17  C   LIG    1       -9.077   0.826   2.426  0.00  0.00    +0.001 A 
ATOM     18  C   LIG    1       -9.469   2.098   2.094  0.00  0.00    +0.001 A 
ATOM     19  C   LIG    1       -9.118   2.523   0.821  0.00  0.00    +0.008 A 
ATOM     20  C   LIG    1       -8.406   1.684  -0.045  0.00  0.00    -0.018 A 
ATOM     21  C   LIG    1       -8.143   2.159  -1.315  0.00  0.00    +0.008 A 
ATOM     22  C   LIG    1       -7.488   1.314  -2.197  0.00  0.00    +0.001 A 
ATOM     23  C   LIG    1       -7.111   0.052  -1.824  0.00  0.00    +0.005 A 
ENDBRANCH  12  14
ENDBRANCH  10  12
ENDBRANCH   9  10
ENDBRANCH   8   9
ENDBRANCH   7   8
ENDBRANCH   1   7
BRANCH   4  24
ATOM     24  C   LIG    1        1.704  -0.515  -1.321  0.00  0.00    +0.125 C 
BRANCH  24  25
ATOM     25  C   LIG    1        3.008   0.189  -1.815  0.00  0.00    +0.247 C 
BRANCH  25  26
ATOM     26  O   LIG    1        3.877  -0.015  -0.780  0.00  0.00    -0.463 OA
BRANCH  26  27
ATOM     27  C   LIG    1        5.120   0.391  -0.493  0.00  0.00    +0.314 C 
ATOM     28  O   LIG    1        5.683   1.165  -1.359  0.00  0.00    -0.250 OA
BRANCH  27  29
ATOM     29  C   LIG    1        5.890   0.033   0.707  0.00  0.00    +0.125 C 
ATOM     30  C   LIG    1        5.733  -1.343   1.256  0.00  0.00    +0.024 C 
BRANCH  29  31
ATOM     31  C   LIG    1        7.139   0.731   0.955  0.00  0.00    -0.026 A 
ATOM     32  C   LIG    1        7.317   1.667   1.954  0.00  0.00    +0.005 A 
ATOM     33  C   LIG    1        8.441   2.450   2.084  0.00  0.00    +0.001 A 
ATOM     34  C   LIG    1        9.466   2.315   1.183  0.00  0.00    +0.008 A 
ATOM     35  C   LIG    1        9.332   1.379   0.156  0.00  0.00    -0.018 A 
ATOM     36  C   LIG    1       10.420   1.203  -0.687  0.00  0.00    +0.008 A 
ATOM     37  C   LIG    1       10.284   0.188  -1.641  0.00  0.00    +0.001 A 
ATOM     38  C   LIG    1        9.182  -0.590  -1.760  0.00  0.00    +0.001 A 
ATOM     39  C   LIG    1        8.110  -0.400  -0.918  0.00  0.00    +0.009 A 
ATOM     40  C   LIG    1        8.194   0.617   0.064  0.00  0.00    -0.014 A 
ENDBRANCH  29  31
ENDBRANCH  27  29
ENDBRANCH  26  27
ENDBRANCH  25  26
ENDBRANCH  24  25
ENDBRANCH   4  24
TORSDOF 12
