REMARK  Name = molecules/ZLJLUTCIUOCIQM-NVNXTCNLSA-N.pdb
REMARK                            x       y       z     vdW  Elec       q    Type
REMARK                         _______ _______ _______ _____ _____    ______ ____
ROOT
ATOM      1  C   LIG    1       -0.080   0.711   0.622  0.00  0.00    -0.017 C 
ATOM      2  C   LIG    1        0.870  -0.161   0.449  0.00  0.00    -0.013 C 
ATOM      3  C   LIG    1        2.271   0.345   0.366  0.00  0.00    -0.014 A 
ATOM      4  C   LIG    1        2.366   1.491   1.115  0.00  0.00    +0.009 A 
ATOM      5  C   LIG    1        3.605   2.129   1.145  0.00  0.00    +0.001 A 
ATOM      6  C   LIG    1        4.689   1.634   0.457  0.00  0.00    +0.000 A 
ATOM      7  C   LIG    1        4.532   0.480  -0.275  0.00  0.00    +0.005 A 
ATOM      8  C   LIG    1        3.308  -0.213  -0.348  0.00  0.00    -0.029 A 
ATOM      9  C   LIG    1        3.519  -1.391  -1.179  0.00  0.00    +0.110 C 
ATOM     10  S   LIG    1        2.094  -2.113  -1.966  0.00  0.00    -0.113 S 
ATOM     11  C   LIG    1        0.899  -2.436  -0.676  0.00  0.00    +0.053 A 
ATOM     12  S   LIG    1        0.072  -3.892  -0.373  0.00  0.00    -0.090 S 
ATOM     13  C   LIG    1       -0.846  -3.401   0.977  0.00  0.00    +0.047 A 
ATOM     14  C   LIG    1       -0.480  -2.079   1.171  0.00  0.00    +0.017 A 
ATOM     15  C   LIG    1        0.427  -1.583   0.307  0.00  0.00    +0.003 A 
ENDROOT
BRANCH   1  16
ATOM     16  C   LIG    1       -1.500   0.308   0.667  0.00  0.00    +0.043 C 
BRANCH  16  17
ATOM     17  C   LIG    1       -2.302   1.246  -0.322  0.00  0.00    +0.088 C 
BRANCH  17  18
ATOM     18  N   LIG    1       -3.680   0.889  -0.304  0.00  0.00    -0.308 NA
ATOM     19  C   LIG    1       -3.915  -0.524  -0.538  0.00  0.00    +0.104 C 
ATOM     20  C   LIG    1       -4.405   1.731  -1.193  0.00  0.00    +0.104 C 
ENDBRANCH  17  18
ENDBRANCH  16  17
ENDBRANCH   1  16
TORSDOF 3
