REMARK  Name = molecules/ZLUNGGZJSQDFPH-MRVPVSSYSA-N.pdb
REMARK                            x       y       z     vdW  Elec       q    Type
REMARK                         _______ _______ _______ _____ _____    ______ ____
ROOT
ATOM      1  C   LIG    1       -0.672   0.164   0.152  0.00  0.00    +0.126 C 
ATOM      2  C   LIG    1       -0.710  -1.186   0.812  0.00  0.00    +0.236 C 
ATOM      3  O   LIG    1       -0.047  -1.365   1.862  0.00  0.00    -0.274 OA
ATOM      4  N   LIG    1       -1.462  -2.281   0.317  0.00  0.00    -0.239 N 
ATOM      5  H   LIG    1       -1.425  -3.199   0.840  0.00  0.00    +0.159 HD
ATOM      6  C   LIG    1       -2.238  -2.149  -0.840  0.00  0.00    +0.312 C 
ATOM      7  O   LIG    1       -2.896  -3.133  -1.262  0.00  0.00    -0.252 OA
ATOM      8  N   LIG    1       -2.283  -0.933  -1.525  0.00  0.00    -0.239 N 
ATOM      9  H   LIG    1       -2.881  -0.862  -2.403  0.00  0.00    +0.159 HD
ATOM     10  C   LIG    1       -1.540   0.185  -1.051  0.00  0.00    +0.236 C 
ATOM     11  O   LIG    1       -1.659   1.236  -1.727  0.00  0.00    -0.274 OA
ENDROOT
BRANCH   1  12
ATOM     12  C   LIG    1       -1.411   1.022   1.170  0.00  0.00    +0.022 C 
ATOM     13  C   LIG    1       -0.816   1.084   2.517  0.00  0.00    +0.005 C 
ENDBRANCH   1  12
BRANCH   1  14
ATOM     14  C   LIG    1        0.721   0.570  -0.145  0.00  0.00    +0.013 C 
BRANCH  14  15
ATOM     15  C   LIG    1        0.807   1.938  -0.846  0.00  0.00    +0.001 C 
ATOM     16  C   LIG    1        0.273   3.111  -0.152  0.00  0.00    +0.004 C 
ENDBRANCH  14  15
BRANCH  14  17
ATOM     17  C   LIG    1        1.400  -0.322  -1.159  0.00  0.00    +0.005 C 
BRANCH  17  18
ATOM     18  C   LIG    1        1.626  -1.730  -0.931  0.00  0.00    -0.003 C 
ATOM     19  C   LIG    1        2.506  -2.083   0.249  0.00  0.00    +0.004 C 
ENDBRANCH  17  18
ENDBRANCH  14  17
ENDBRANCH   1  14
TORSDOF 5
