REMARK  Name = molecules/ZMNSRFNUONFLSP-QMMMGPOBSA-N.pdb
REMARK                            x       y       z     vdW  Elec       q    Type
REMARK                         _______ _______ _______ _____ _____    ______ ____
ROOT
ATOM      1  O   LIG    1        0.193  -0.028  -0.592  0.00  0.00    -0.485 OA
ENDROOT
BRANCH   1   2
ATOM      2  C   LIG    1       -1.017   0.447  -0.107  0.00  0.00    +0.162 A 
ATOM      3  C   LIG    1       -1.110   1.712   0.438  0.00  0.00    +0.049 A 
ATOM      4  C   LIG    1       -2.333   2.135   0.905  0.00  0.00    +0.004 A 
ATOM      5  C   LIG    1       -3.432   1.306   0.826  0.00  0.00    +0.004 A 
ATOM      6  C   LIG    1       -3.307   0.030   0.269  0.00  0.00    +0.049 A 
ATOM      7  C   LIG    1       -2.091  -0.414  -0.205  0.00  0.00    +0.161 A 
BRANCH   7   8
ATOM      8  O   LIG    1       -1.966  -1.685  -0.759  0.00  0.00    -0.491 OA
ATOM      9  C   LIG    1       -3.018  -2.588  -0.881  0.00  0.00    +0.277 C 
ENDBRANCH   7   8
ENDBRANCH   1   2
BRANCH   1  10
ATOM     10  C   LIG    1        1.329   0.789  -0.527  0.00  0.00    +0.275 C 
BRANCH  10  11
ATOM     11  C   LIG    1        2.550   0.115  -1.097  0.00  0.00    +0.232 C 
ATOM     12  C   LIG    1        3.005  -1.049  -0.261  0.00  0.00    +0.155 C 
ATOM     13  N   LIG    1        4.059  -0.534   0.575  0.00  0.00    -0.277 N 
ATOM     14  H   LIG    1        4.488  -1.082   1.356  0.00  0.00    +0.152 HD
ATOM     15  C   LIG    1        4.376   0.778   0.151  0.00  0.00    +0.401 C 
ATOM     16  O   LIG    1        5.197   1.548   0.742  0.00  0.00    -0.226 OA
ATOM     17  O   LIG    1        3.635   1.019  -0.983  0.00  0.00    -0.442 OA
ENDBRANCH  10  11
ENDBRANCH   1  10
TORSDOF 4
