REMARK  Name = molecules/ZNEWHQLOPFWXOF-UHFFFAOYSA-N.pdb
REMARK                            x       y       z     vdW  Elec       q    Type
REMARK                         _______ _______ _______ _____ _____    ______ ____
ROOT
ATOM      1  S   LIG    1       -1.392   0.815  -0.100  0.00  0.00    +0.081 S 
ATOM      2  O   LIG    1       -1.714   2.250   0.197  0.00  0.00    -0.147 OA
ATOM      3  O   LIG    1       -2.192   0.278  -1.248  0.00  0.00    -0.147 OA
ENDROOT
BRANCH   1   4
ATOM      4  O   LIG    1       -1.791  -0.056   1.306  0.00  0.00    -0.254 OA
ATOM      5  H   LIG    1       -1.930  -0.992   0.991  0.00  0.00    +0.244 HD
ENDBRANCH   1   4
BRANCH   1   6
ATOM      6  C   LIG    1        0.354   0.598  -0.342  0.00  0.00    +0.208 C 
BRANCH   6   7
ATOM      7  C   LIG    1        0.723  -0.855  -0.515  0.00  0.00    +0.091 C 
BRANCH   7   8
ATOM      8  S   LIG    1        2.498  -0.996  -0.755  0.00  0.00    -0.177 S 
ATOM      9  H   LIG    1        3.230  -0.507   0.335  0.00  0.00    +0.102 HD
ENDBRANCH   7   8
ENDBRANCH   6   7
ENDBRANCH   1   6
TORSDOF 4
