REMARK  Name = molecules/ZNOVTXRBGFNYRX-STQMWFEESA-N.pdb
REMARK                            x       y       z     vdW  Elec       q    Type
REMARK                         _______ _______ _______ _____ _____    ______ ____
ROOT
ATOM      1  C   UNK A  0        0.298   0.149  -1.310  0.00  0.00    +0.027 A 
ATOM      2  C   UNK A  0       -0.813   0.915  -0.931  0.00  0.00    +0.023 A 
ATOM      3  C   UNK A  0       -1.995   0.350  -0.527  0.00  0.00    +0.015 A 
ATOM      4  C   UNK A  0       -2.101  -1.012  -0.490  0.00  0.00    +0.037 A 
ATOM      5  C   UNK A  0       -1.009  -1.765  -0.862  0.00  0.00    +0.015 A 
ATOM      6  C   UNK A  0        0.189  -1.219  -1.272  0.00  0.00    +0.023 A 
ENDROOT
BRANCH   4   7
ATOM      7  C   UNK A  0       -3.313  -1.693  -0.080  0.00  0.00    +0.245 C 
ATOM      8  O   UNK A  0       -3.298  -2.872   0.336  0.00  0.00    -0.270 OA
ATOM      9  N   GLU A  1       -4.557  -1.015  -0.145  0.00  0.00    -0.298 N 
ATOM     10  H   GLU A  1       -4.569  -0.046  -0.499  0.00  0.00    +0.150 HD
BRANCH   9  11
ATOM     11  CA  GLU A  1       -5.772  -1.651   0.262  0.00  0.00    +0.182 C 
BRANCH  11  12
ATOM     12  C   GLU A  1       -6.644  -1.867  -0.950  0.00  0.00    +0.325 C 
ATOM     13  O   GLU A  1       -6.244  -1.503  -2.087  0.00  0.00    -0.249 OA
BRANCH  12  14
ATOM     14  OXT GLU A  1       -7.871  -2.471  -0.740  0.00  0.00    -0.479 OA
ATOM     15  HXT GLU A  1       -7.874  -3.485  -0.672  0.00  0.00    +0.295 HD
ENDBRANCH  12  14
ENDBRANCH  11  12
BRANCH  11  16
ATOM     16  CB  GLU A  1       -6.532  -0.765   1.202  0.00  0.00    +0.045 C 
BRANCH  16  17
ATOM     17  CG  GLU A  1       -6.879   0.525   0.505  0.00  0.00    +0.123 C 
BRANCH  17  18
ATOM     18  CD  GLU A  1       -7.638   1.364   1.481  0.00  0.00    +0.305 C 
ATOM     19  OE2 GLU A  1       -7.910   0.984   2.643  0.00  0.00    -0.251 OA
BRANCH  18  20
ATOM     20  OE1 GLU A  1       -8.051   2.621   1.056  0.00  0.00    -0.481 OA
ATOM     21  HE1 GLU A  1       -8.580   2.724   0.183  0.00  0.00    +0.295 HD
ENDBRANCH  18  20
ENDBRANCH  17  18
ENDBRANCH  16  17
ENDBRANCH  11  16
ENDBRANCH   9  11
ENDBRANCH   4   7
BRANCH   1  22
ATOM     22  N   UNK A  0        1.467   0.816  -1.715  0.00  0.00    -0.342 N 
ATOM     23  H   UNK A  0        1.422   1.863  -1.840  0.00  0.00    +0.146 HD
BRANCH  22  24
ATOM     24  C   UNK A  0        2.699   0.182  -1.972  0.00  0.00    +0.125 C 
BRANCH  24  38
ATOM     25  C   UNK A  0        2.746   1.175   1.023  0.00  0.00    +0.130 C 
ATOM     26  N   UNK A  0        3.789   0.556   0.214  0.00  0.00    -0.320 N 
ATOM     27  C   UNK A  0        5.127   0.939   0.493  0.00  0.00    +0.135 A 
ATOM     28  C   UNK A  0        5.442   2.113   1.098  0.00  0.00    +0.298 A 
ATOM     29  O   UNK A  0        4.502   2.907   1.421  0.00  0.00    -0.264 OA
ATOM     30  N   UNK A  0        6.726   2.406   1.337  0.00  0.00    -0.176 NA
ATOM     31  C   UNK A  0        7.731   1.575   0.998  0.00  0.00    +0.195 A 
ATOM     32  N   UNK A  0        7.465   0.400   0.396  0.00  0.00    -0.315 N 
ATOM     33  H   UNK A  0        8.205  -0.274   0.119  0.00  0.00    +0.170 HD
ATOM     34  C   UNK A  0        6.189   0.089   0.147  0.00  0.00    +0.126 A 
ATOM     35  N   UNK A  0        5.795  -1.129  -0.480  0.00  0.00    -0.327 N 
ATOM     36  H   UNK A  0        6.364  -1.990  -0.276  0.00  0.00    +0.148 HD
ATOM     37  C   UNK A  0        4.651  -1.097  -1.359  0.00  0.00    +0.126 C 
ATOM     38  C   UNK A  0        3.433  -0.405  -0.796  0.00  0.00    +0.107 C 
BRANCH  31  39
ATOM     39  N   UNK A  0        9.068   1.972   1.294  0.00  0.00    -0.329 N 
ATOM     40  H   UNK A  0        9.767   1.261   1.508  0.00  0.00    +0.145 HD
ATOM     41  H   UNK A  0        9.294   2.977   1.284  0.00  0.00    +0.145 HD
ENDBRANCH  31  39
ENDBRANCH  24  38
ENDBRANCH  22  24
ENDBRANCH   1  22
TORSDOF 12
