REMARK  Name = molecules/ZOEFCCMDUURGSE-SQKVDDBVSA-N.pdb
REMARK                            x       y       z     vdW  Elec       q    Type
REMARK                         _______ _______ _______ _____ _____    ______ ____
ROOT
ATOM      1  C   LIG    1       24.376  13.868   0.000  0.00  0.00    +0.108 C 
ATOM      2  C   LIG    1       25.802  13.405   0.000  0.00  0.00    +0.006 C 
ENDROOT
BRANCH   1   4
ATOM      3  C   LIG    1       26.306  15.607   0.000  0.00  0.00    +0.086 C 
ATOM      4  N   LIG    1       24.839  15.295   0.000  0.00  0.00    -0.257 NA
BRANCH   3   6
ATOM      5  N   LIG    1       28.197  16.570   0.000  0.00  0.00    -0.131 NA
ATOM      6  CA  LIG    1       26.770  17.033   0.000  0.00  0.00    +0.172 C 
BRANCH   6   7
ATOM      7  C   LIG    1       27.233  18.460   0.000  0.00  0.00    +0.229 C 
ATOM      8  O   LIG    1       27.697  19.887   0.000  0.00  0.00    -0.233 OA
ENDBRANCH   6   7
ENDBRANCH   3   6
ENDBRANCH   1   4
BRANCH   2   9
ATOM      9  C   LIG    1       27.229  12.941   0.000  0.00  0.00    +0.036 C 
BRANCH   9  10
ATOM     10  C   LIG    1       27.541  11.474   0.000  0.00  0.00    -0.010 C 
ATOM     11  C   LIG    1       28.967  11.011   0.000  0.00  0.00    +0.047 C 
BRANCH  11  12
ATOM     12  C   LIG    1       30.082  12.014   0.000  0.00  0.00    +0.175 C 
ATOM     13  O   LIG    1       31.509  11.551   0.000  0.00  0.00    -0.288 OA
ATOM     14  C   LIG    1       29.770  13.482   0.000  0.00  0.00    +0.028 C 
ATOM     15  C   LIG    1       28.344  13.945   0.000  0.00  0.00    +0.030 C 
ENDBRANCH  11  12
ENDBRANCH   9  10
ENDBRANCH   2   9
TORSDOF 6
REMARK  Name = molecules/ZOEFCCMDUURGSE-SQKVDDBVSA-N.pdb
REMARK                            x       y       z     vdW  Elec       q    Type
REMARK                         _______ _______ _______ _____ _____    ______ ____
ROOT
ATOM      1  N   GLY A  1       21.834  13.328   0.000  0.00  0.00    -0.134 NA
ATOM      2  CA  GLY A  1       20.408  13.792   0.000  0.00  0.00    +0.160 C 
ATOM      3  C   GLY A  1       20.871  15.218   0.000  0.00  0.00    +0.269 C 
ATOM      4  O   GLY A  1       21.335  16.645   0.000  0.00  0.00    -0.295 OA
ENDROOT
TORSDOF 0
REMARK  Name = molecules/ZOEFCCMDUURGSE-SQKVDDBVSA-N.pdb
REMARK                            x       y       z     vdW  Elec       q    Type
REMARK                         _______ _______ _______ _____ _____    ______ ____
ROOT
ATOM      1  C   LIG    1       16.587  11.090   0.000  0.00  0.00    +0.109 C 
ENDROOT
BRANCH   1   2
ATOM      2  N   LIG    1       15.472  10.086   0.000  0.00  0.00    -0.382 N 
ATOM      3  C   LIG    1       14.046  10.550   0.000  0.00  0.00    +0.055 C 
ATOM      4  H   LIG    1       15.901   8.829   0.000  0.00  0.00    +0.160 HD
BRANCH   3   5
ATOM      5  C   LIG    1       14.509  11.977   0.000  0.00  0.00    +0.047 C 
BRANCH   5   6
ATOM      6  C   LIG    1       14.973  13.403   0.000  0.00  0.00    +0.134 C 
BRANCH   6   7
ATOM      7  C   LIG    1       15.436  14.830   0.000  0.00  0.00    +0.357 C 
ATOM      8  O   LIG    1       14.432  15.944   0.000  0.00  0.00    -0.246 OA
ATOM      9  O   LIG    1       16.904  15.142   0.000  0.00  0.00    -0.246 OA
ENDBRANCH   6   7
ENDBRANCH   5   6
ENDBRANCH   3   5
ENDBRANCH   1   2
BRANCH   1  10
ATOM     10  C   LIG    1       18.014  10.627   0.000  0.00  0.00    +0.108 C 
BRANCH  10  11
ATOM     11  N   LIG    1       18.477  12.053   0.000  0.00  0.00    -0.222 NA
ATOM     12  C   LIG    1       19.944  12.365   0.000  0.00  0.00    +0.107 C 
ENDBRANCH  10  11
BRANCH  10  13
ATOM     13  C   LIG    1       19.440  10.163   0.000  0.00  0.00    +0.025 C 
BRANCH  13  14
ATOM     14  C   LIG    1       20.867   9.700   0.000  0.00  0.00    +0.074 C 
BRANCH  14  15
ATOM     15  S   LIG    1       22.293   9.236   0.000  0.00  0.00    -0.164 S 
ATOM     16  C   LIG    1       22.605   7.769   0.000  0.00  0.00    +0.084 C 
ENDBRANCH  14  15
ENDBRANCH  13  14
ENDBRANCH  10  13
ENDBRANCH   1  10
TORSDOF 9
REMARK  Name = molecules/ZOEFCCMDUURGSE-SQKVDDBVSA-N.pdb
REMARK                            x       y       z     vdW  Elec       q    Type
REMARK                         _______ _______ _______ _____ _____    ______ ____
ROOT
ATOM      1  C   LIG    1       11.651   7.385   0.000  0.00  0.00    +0.107 C 
ENDROOT
BRANCH   1   2
ATOM      2  N   LIG    1       12.115   8.812   0.000  0.00  0.00    -0.215 NA
ATOM      3  C   LIG    1       13.582   9.123   0.000  0.00  0.00    +0.108 C 
ENDBRANCH   1   2
BRANCH   1   4
ATOM      4  C   LIG    1       10.225   7.848   0.000  0.00  0.00    +0.103 C 
BRANCH   4   5
ATOM      5  N   LIG    1        9.110   6.845   0.000  0.00  0.00    -0.244 NA
ATOM      6  H   LIG    1        8.433   6.060   0.000  0.00  0.00    +0.141 HD
ENDBRANCH   4   5
ENDBRANCH   1   4
TORSDOF 3
REMARK  Name = molecules/ZOEFCCMDUURGSE-SQKVDDBVSA-N.pdb
REMARK                            x       y       z     vdW  Elec       q    Type
REMARK                         _______ _______ _______ _____ _____    ______ ____
ROOT
ATOM      1  N   LIG    1        5.753   5.570   0.000  0.00  0.00    -0.211 NA
ENDROOT
BRANCH   1   2
ATOM      2  C   LIG    1        5.199   5.168   0.000  0.00  0.00    +0.086 C 
ATOM      3  C   LIG    1        5.289   4.143   0.000  0.00  0.00    +0.019 C 
ENDBRANCH   1   2
BRANCH   1   4
ATOM      4  C   LIG    1        6.314   6.171   0.000  0.00  0.00    +0.077 C 
ATOM      5  C   LIG    1        7.220   5.882   0.000  0.00  0.00    +0.029 C 
ENDBRANCH   1   4
TORSDOF 2
REMARK  Name = molecules/ZOEFCCMDUURGSE-SQKVDDBVSA-N.pdb
REMARK                            x       y       z     vdW  Elec       q    Type
REMARK                         _______ _______ _______ _____ _____    ______ ____
ROOT
ATOM      1  N   LIG    1        2.748   3.603   0.000  0.00  0.00    +0.038 NA
ATOM      2  O   LIG    1        3.476   3.710   0.000  0.00  0.00    -0.278 OA
ATOM      3  H   LIG    1        3.335   2.987   0.000  0.00  0.00    +0.240 HD
ENDROOT
TORSDOF 0
REMARK  Name = molecules/ZOEFCCMDUURGSE-SQKVDDBVSA-N.pdb
REMARK                            x       y       z     vdW  Elec       q    Type
REMARK                         _______ _______ _______ _____ _____    ______ ____
ROOT
ATOM      1  N   LIG    1        3.252   5.805   0.000  0.00  0.00    -0.157 NA
ATOM      2  O   LIG    1        3.703   5.174   0.000  0.00  0.00    -0.122 OA
ATOM      3  H   LIG    1        3.265   6.478   0.000  0.00  0.00    +0.158 HD
ENDROOT
BRANCH   1   4
ATOM      4  C   LIG    1        2.571   6.158   0.000  0.00  0.00    +0.100 C 
ATOM      5  C   LIG    1        2.037   5.618   0.000  0.00  0.00    +0.021 C 
ENDBRANCH   1   4
TORSDOF 1
REMARK  Name = molecules/ZOEFCCMDUURGSE-SQKVDDBVSA-N.pdb
REMARK                            x       y       z     vdW  Elec       q    Type
REMARK                         _______ _______ _______ _____ _____    ______ ____
ROOT
ATOM      1  N   LIG    1        3.175   9.773   0.000  0.00  0.00    +0.000 NA
ENDROOT
TORSDOF 0
REMARK  Name = molecules/ZOEFCCMDUURGSE-SQKVDDBVSA-N.pdb
REMARK                            x       y       z     vdW  Elec       q    Type
REMARK                         _______ _______ _______ _____ _____    ______ ____
ROOT
ATOM      1  N   LIG    1        6.180  11.740   0.000  0.00  0.00    -0.379 N 
ATOM      2  C   LIG    1        5.375  11.710   0.000  0.00  0.00    +0.121 C 
ATOM      3  C   LIG    1        6.489  12.714   0.000  0.00  0.00    -0.006 C 
ATOM      4  C   LIG    1        6.024  13.232   0.000  0.00  0.00    +0.049 C 
ATOM      5  C   LIG    1        7.394  13.842   0.000  0.00  0.00    +0.054 C 
ATOM      6  H   LIG    1        6.235  10.482   0.000  0.00  0.00    +0.160 HD
ENDROOT
TORSDOF 0
REMARK  Name = molecules/ZOEFCCMDUURGSE-SQKVDDBVSA-N.pdb
REMARK                            x       y       z     vdW  Elec       q    Type
REMARK                         _______ _______ _______ _____ _____    ______ ____
ROOT
ATOM      1  N   LIG    1        3.553  14.034   0.000  0.00  0.00    +0.000 NA
ENDROOT
TORSDOF 0
REMARK  Name = molecules/ZOEFCCMDUURGSE-SQKVDDBVSA-N.pdb
REMARK                            x       y       z     vdW  Elec       q    Type
REMARK                         _______ _______ _______ _____ _____    ______ ____
ROOT
ATOM      1  N   LIG    1        1.282  11.252   0.000  0.00  0.00    -0.163 NA
ATOM      2  H   LIG    1        2.013  10.687   0.000  0.00  0.00    +0.163 HD
ENDROOT
TORSDOF 0
REMARK  Name = molecules/ZOEFCCMDUURGSE-SQKVDDBVSA-N.pdb
REMARK                            x       y       z     vdW  Elec       q    Type
REMARK                         _______ _______ _______ _____ _____    ______ ____
ROOT
ATOM      1  N   LIG    1        0.791   7.314   0.000  0.00  0.00    +0.000 NA
ENDROOT
TORSDOF 0
REMARK  Name = molecules/ZOEFCCMDUURGSE-SQKVDDBVSA-N.pdb
REMARK                            x       y       z     vdW  Elec       q    Type
REMARK                         _______ _______ _______ _____ _____    ______ ____
ROOT
ATOM      1  N   LIG    1        3.034   7.585   0.000  0.00  0.00    +0.000 NA
ENDROOT
TORSDOF 0
REMARK  Name = molecules/ZOEFCCMDUURGSE-SQKVDDBVSA-N.pdb
REMARK                            x       y       z     vdW  Elec       q    Type
REMARK                         _______ _______ _______ _____ _____    ______ ____
ROOT
ATOM      1  N   LIG    1       -0.511   8.159   0.000  0.00  0.00    -0.163 NA
ATOM      2  H   LIG    1       -0.649   9.564   0.000  0.00  0.00    +0.163 HD
ENDROOT
TORSDOF 0
REMARK  Name = molecules/ZOEFCCMDUURGSE-SQKVDDBVSA-N.pdb
REMARK                            x       y       z     vdW  Elec       q    Type
REMARK                         _______ _______ _______ _____ _____    ______ ____
ROOT
ATOM      1  N   LIG    1       -1.085   4.614   0.000  0.00  0.00    -0.244 NA
ATOM      2  C   LIG    1       -1.831   5.223   0.000  0.00  0.00    +0.103 C 
ATOM      3  H   LIG    1       -1.700   3.728   0.000  0.00  0.00    +0.141 HD
ENDROOT
TORSDOF 0
REMARK  Name = molecules/ZOEFCCMDUURGSE-SQKVDDBVSA-N.pdb
REMARK                            x       y       z     vdW  Elec       q    Type
REMARK                         _______ _______ _______ _____ _____    ______ ____
ROOT
ATOM      1  O   LIG    1        1.404   6.277   0.000  0.00  0.00    -0.091 OA
ENDROOT
BRANCH   1   2
ATOM      2  N   LIG    1        0.721   5.971   0.000  0.00  0.00    -0.074 NA
ATOM      3  H   LIG    1        0.905   6.602   0.000  0.00  0.00    +0.179 HD
ENDBRANCH   1   2
BRANCH   1   4
ATOM      4  O   LIG    1        0.924   6.722   0.000  0.00  0.00    -0.013 OA
ATOM      5  O   LIG    1        0.401   7.138   0.000  0.00  0.00    -0.001 OA
ENDBRANCH   1   4
TORSDOF 2
REMARK  Name = molecules/ZOEFCCMDUURGSE-SQKVDDBVSA-N.pdb
REMARK                            x       y       z     vdW  Elec       q    Type
REMARK                         _______ _______ _______ _____ _____    ______ ____
ROOT
ATOM      1  N   LIG    1        4.196   6.282   0.000  0.00  0.00    -0.214 NA
ATOM      2  H   LIG    1        3.855   6.923   0.000  0.00  0.00    +0.150 HD
ATOM      3  H   LIG    1        5.049   6.894   0.000  0.00  0.00    +0.150 HD
ENDROOT
BRANCH   1   4
ATOM      4  O   LIG    1        4.082   5.373   0.000  0.00  0.00    -0.294 OA
ATOM      5  C   LIG    1        3.863   4.607   0.000  0.00  0.00    +0.208 C 
ENDBRANCH   1   4
TORSDOF 1
REMARK  Name = molecules/ZOEFCCMDUURGSE-SQKVDDBVSA-N.pdb
REMARK                            x       y       z     vdW  Elec       q    Type
REMARK                         _______ _______ _______ _____ _____    ______ ____
ROOT
ATOM      1  N   LIG    1        4.397   2.697   0.000  0.00  0.00    -0.163 NA
ATOM      2  H   LIG    1        5.185   2.647   0.000  0.00  0.00    +0.163 HD
ENDROOT
TORSDOF 0
REMARK  Name = molecules/ZOEFCCMDUURGSE-SQKVDDBVSA-N.pdb
REMARK                            x       y       z     vdW  Elec       q    Type
REMARK                         _______ _______ _______ _____ _____    ______ ____
ROOT
ATOM      1  N   LIG    1        0.811   2.496   0.000  0.00  0.00    -0.163 NA
ATOM      2  H   LIG    1        1.588   2.038   0.000  0.00  0.00    +0.163 HD
ENDROOT
TORSDOF 0
REMARK  Name = molecules/ZOEFCCMDUURGSE-SQKVDDBVSA-N.pdb
REMARK                            x       y       z     vdW  Elec       q    Type
REMARK                         _______ _______ _______ _____ _____    ______ ____
ROOT
ATOM      1  N   LIG    1       -0.996   1.140   0.000  0.00  0.00    -0.301 NA
ATOM      2  C   LIG    1       -1.196   2.496   0.000  0.00  0.00    +0.091 C 
ATOM      3  H   LIG    1       -0.336   1.267   0.000  0.00  0.00    +0.123 HD
ENDROOT
BRANCH   1   4
ATOM      4  C   LIG    1       -2.311   1.492   0.000  0.00  0.00    +0.068 C 
BRANCH   4   5
ATOM      5  C   LIG    1       -2.110   0.136   0.000  0.00  0.00    +0.017 C 
ATOM      6  C   LIG    1       -3.426   0.488   0.000  0.00  0.00    +0.001 C 
ENDBRANCH   4   5
ENDBRANCH   1   4
TORSDOF 2
REMARK  Name = molecules/ZOEFCCMDUURGSE-SQKVDDBVSA-N.pdb
REMARK                            x       y       z     vdW  Elec       q    Type
REMARK                         _______ _______ _______ _____ _____    ______ ____
ROOT
ATOM      1  N   LIG    1       -4.581   0.939   0.000  0.00  0.00    -0.146 NA
ATOM      2  C   LIG    1       -3.630   0.750   0.000  0.00  0.00    +0.122 C 
ENDROOT
BRANCH   2   3
ATOM      3  C   LIG    1       -3.114   1.251   0.000  0.00  0.00    +0.023 C 
ATOM      4  C   LIG    1       -2.331   1.500   0.000  0.00  0.00    +0.002 C 
ENDBRANCH   2   3
TORSDOF 1
REMARK  Name = molecules/ZOEFCCMDUURGSE-SQKVDDBVSA-N.pdb
REMARK                            x       y       z     vdW  Elec       q    Type
REMARK                         _______ _______ _______ _____ _____    ______ ____
ROOT
ATOM      1  O   HOH    1       -6.930  -2.362   0.000  0.00  0.00    -0.253 OA
ATOM      2  H   HOH    0       -7.046  -1.730   0.000  0.00  0.00    +0.253 HD
ENDROOT
TORSDOF 0
REMARK  Name = molecules/ZOEFCCMDUURGSE-SQKVDDBVSA-N.pdb
REMARK                            x       y       z     vdW  Elec       q    Type
REMARK                         _______ _______ _______ _____ _____    ______ ____
ROOT
ATOM      1  O   HOH    1       27.310  14.492   0.000  0.00  0.00    -0.410 OA
ATOM      2  H   HOH    0       27.855  15.363   0.000  0.00  0.00    +0.205 HD
ATOM      3  H   HOH    0       26.597  14.677   0.000  0.00  0.00    +0.205 HD
ENDROOT
TORSDOF 0
REMARK  Name = molecules/ZOEFCCMDUURGSE-SQKVDDBVSA-N.pdb
REMARK                            x       y       z     vdW  Elec       q    Type
REMARK                         _______ _______ _______ _____ _____    ______ ____
ROOT
ATOM      1  C   LIG    1       22.949  14.332   0.000  0.00  0.00    +0.000 C 
ENDROOT
TORSDOF 0
REMARK  Name = molecules/ZOEFCCMDUURGSE-SQKVDDBVSA-N.pdb
REMARK                            x       y       z     vdW  Elec       q    Type
REMARK                         _______ _______ _______ _____ _____    ______ ____
ROOT
ATOM      1  O   HOH    1       22.637  15.799   0.000  0.00  0.00    -0.410 OA
ATOM      2  H   HOH    0       22.368  15.114   0.000  0.00  0.00    +0.205 HD
ATOM      3  H   HOH    0       22.802  16.957   0.000  0.00  0.00    +0.205 HD
ENDROOT
TORSDOF 0
REMARK  Name = molecules/ZOEFCCMDUURGSE-SQKVDDBVSA-N.pdb
REMARK                            x       y       z     vdW  Elec       q    Type
REMARK                         _______ _______ _______ _____ _____    ______ ____
ROOT
ATOM      1  O   HOH    1       21.076  11.381   0.000  0.00  0.00    -0.410 OA
ATOM      2  H   HOH    0       20.235  11.435   0.000  0.00  0.00    +0.205 HD
ATOM      3  H   HOH    0       22.146  11.861   0.000  0.00  0.00    +0.205 HD
ENDROOT
TORSDOF 0
REMARK  Name = molecules/ZOEFCCMDUURGSE-SQKVDDBVSA-N.pdb
REMARK                            x       y       z     vdW  Elec       q    Type
REMARK                         _______ _______ _______ _____ _____    ______ ____
ROOT
ATOM      1  O   HOH    1       16.456  12.585   0.000  0.00  0.00    -0.410 OA
ATOM      2  H   HOH    0       16.006  11.872   0.000  0.00  0.00    +0.205 HD
ATOM      3  H   HOH    0       17.473  13.168   0.000  0.00  0.00    +0.205 HD
ENDROOT
TORSDOF 0
REMARK  Name = molecules/ZOEFCCMDUURGSE-SQKVDDBVSA-N.pdb
REMARK                            x       y       z     vdW  Elec       q    Type
REMARK                         _______ _______ _______ _____ _____    ______ ____
ROOT
ATOM      1  C   LIG    1       14.505   6.458   0.000  0.00  0.00    +0.113 C 
ENDROOT
BRANCH   1   2
ATOM      2  N   LIG    1       14.968   5.031   0.000  0.00  0.00    -0.321 N 
ATOM      3  H   LIG    1       14.652   3.833   0.000  0.00  0.00    +0.148 HD
BRANCH   2   4
ATOM      4  C   LIG    1       16.468   5.031   0.000  0.00  0.00    +0.206 C 
ATOM      5  N   LIG    1       16.932   6.458   0.000  0.00  0.00    -0.141 NA
ENDBRANCH   2   4
ENDBRANCH   1   2
BRANCH   1   6
ATOM      6  C   LIG    1       15.718   7.340   0.000  0.00  0.00    +0.173 C 
BRANCH   6   7
ATOM      7  O   LIG    1       14.586   8.009   0.000  0.00  0.00    -0.387 OA
ATOM      8  H   LIG    1       13.873   8.194   0.000  0.00  0.00    +0.210 HD
ENDBRANCH   6   7
ENDBRANCH   1   6
TORSDOF 4
REMARK  Name = molecules/ZOEFCCMDUURGSE-SQKVDDBVSA-N.pdb
REMARK                            x       y       z     vdW  Elec       q    Type
REMARK                         _______ _______ _______ _____ _____    ______ ____
ROOT
ATOM      1  C   LIG    1       13.078   6.921   0.000  0.00  0.00    +0.000 C 
ENDROOT
TORSDOF 0
REMARK  Name = molecules/ZOEFCCMDUURGSE-SQKVDDBVSA-N.pdb
REMARK                            x       y       z     vdW  Elec       q    Type
REMARK                         _______ _______ _______ _____ _____    ______ ____
ROOT
ATOM      1  O   HOH    1        9.913   9.316   0.000  0.00  0.00    -0.410 OA
ATOM      2  H   HOH    0        9.643   8.630   0.000  0.00  0.00    +0.205 HD
ATOM      3  H   HOH    0       10.938   9.245   0.000  0.00  0.00    +0.205 HD
ENDROOT
TORSDOF 0
REMARK  Name = molecules/ZOEFCCMDUURGSE-SQKVDDBVSA-N.pdb
REMARK                            x       y       z     vdW  Elec       q    Type
REMARK                         _______ _______ _______ _____ _____    ______ ____
ROOT
ATOM      1  C   LIG    1        8.147   8.735   0.000  0.00  0.00    +0.000 C 
ENDROOT
TORSDOF 0
REMARK  Name = molecules/ZOEFCCMDUURGSE-SQKVDDBVSA-N.pdb
REMARK                            x       y       z     vdW  Elec       q    Type
REMARK                         _______ _______ _______ _____ _____    ______ ____
ROOT
ATOM      1  C   LIG    1        8.611  10.162   0.000  0.00  0.00    +0.000 C 
ATOM      2  C   LIG    1        7.607  11.276   0.000  0.00  0.00    +0.000 C 
ENDROOT
TORSDOF 0
REMARK  Name = molecules/ZOEFCCMDUURGSE-SQKVDDBVSA-N.pdb
REMARK                            x       y       z     vdW  Elec       q    Type
REMARK                         _______ _______ _______ _____ _____    ______ ____
ROOT
ATOM      1  C   LIG    1       10.078  10.473   0.000  0.00  0.00    +0.000 C 
ENDROOT
TORSDOF 0
REMARK  Name = molecules/ZOEFCCMDUURGSE-SQKVDDBVSA-N.pdb
REMARK                            x       y       z     vdW  Elec       q    Type
REMARK                         _______ _______ _______ _____ _____    ______ ____
ROOT
ATOM      1  C   LIG    1       10.541  11.900   0.000  0.00  0.00    -0.000 C 
ENDROOT
TORSDOF 0
REMARK  Name = molecules/ZOEFCCMDUURGSE-SQKVDDBVSA-N.pdb
REMARK                            x       y       z     vdW  Elec       q    Type
REMARK                         _______ _______ _______ _____ _____    ______ ____
ROOT
ATOM      1  C   LIG    1        9.538  13.015   0.000  0.00  0.00    +0.000 C 
ENDROOT
TORSDOF 0
REMARK  Name = molecules/ZOEFCCMDUURGSE-SQKVDDBVSA-N.pdb
REMARK                            x       y       z     vdW  Elec       q    Type
REMARK                         _______ _______ _______ _____ _____    ______ ____
ROOT
ATOM      1  C   LIG    1        8.070  12.703   0.000  0.00  0.00    +0.180 C 
ATOM      2  N   LIG    1        7.604  13.718   0.000  0.00  0.00    -0.180 NA
ENDROOT
TORSDOF 0
REMARK  Name = molecules/ZOEFCCMDUURGSE-SQKVDDBVSA-N.pdb
REMARK                            x       y       z     vdW  Elec       q    Type
REMARK                         _______ _______ _______ _____ _____    ______ ____
ROOT
ATOM      1  C   LIG    1        7.684   7.308   0.000  0.00  0.00    +0.000 C 
ENDROOT
TORSDOF 0
REMARK  Name = molecules/ZOEFCCMDUURGSE-SQKVDDBVSA-N.pdb
REMARK                            x       y       z     vdW  Elec       q    Type
REMARK                         _______ _______ _______ _____ _____    ______ ____
ROOT
ATOM      1  O   HOH    1        8.352   4.898   0.000  0.00  0.00    -0.253 OA
ATOM      2  H   HOH    0        7.660   4.846   0.000  0.00  0.00    +0.253 HD
ENDROOT
TORSDOF 0
REMARK  Name = molecules/ZOEFCCMDUURGSE-SQKVDDBVSA-N.pdb
REMARK                            x       y       z     vdW  Elec       q    Type
REMARK                         _______ _______ _______ _____ _____    ______ ____
ROOT
ATOM      1  C   LIG    1       12.110   3.293   0.000  0.00  0.00    +0.457 C 
ATOM      2  N   LIG    1       13.537   2.829   0.000  0.00  0.00    +0.128 NA
ENDROOT
BRANCH   1   3
ATOM      3  N   LIG    1       11.798   4.760   0.000  0.00  0.00    -0.284 N 
ATOM      4  H   LIG    1       12.792   5.449   0.000  0.00  0.00    +0.255 HD
ATOM      5  H   LIG    1       11.188   5.958   0.000  0.00  0.00    +0.255 HD
ENDBRANCH   1   3
BRANCH   1   6
ATOM      6  N   LIG    1       10.996   2.289   0.000  0.00  0.00    -0.108 NA
BRANCH   6   7
ATOM      7  C   LIG    1        9.569   2.753   0.000  0.00  0.00    +0.244 C 
BRANCH   7   9
ATOM      8  C   LIG    1        6.716   3.680   0.000  0.00  0.00    -0.001 C 
ATOM      9  C   LIG    1        8.142   3.216   0.000  0.00  0.00    +0.045 C 
ENDBRANCH   7   9
ENDBRANCH   6   7
ENDBRANCH   1   6
TORSDOF 4
REMARK  Name = molecules/ZOEFCCMDUURGSE-SQKVDDBVSA-N.pdb
REMARK                            x       y       z     vdW  Elec       q    Type
REMARK                         _______ _______ _______ _____ _____    ______ ____
ROOT
ATOM      1  C   LIG    1        1.785   5.493   0.000  0.00  0.00    +0.000 C 
ATOM      2  C   LIG    1        1.103   5.846   0.000  0.00  0.00    +0.000 C 
ENDROOT
TORSDOF 0
REMARK  Name = molecules/ZOEFCCMDUURGSE-SQKVDDBVSA-N.pdb
REMARK                            x       y       z     vdW  Elec       q    Type
REMARK                         _______ _______ _______ _____ _____    ______ ____
ROOT
ATOM      1  C   LIG    1        0.858   2.640   0.000  0.00  0.00    +0.000 C 
ENDROOT
TORSDOF 0
REMARK  Name = molecules/ZOEFCCMDUURGSE-SQKVDDBVSA-N.pdb
REMARK                            x       y       z     vdW  Elec       q    Type
REMARK                         _______ _______ _______ _____ _____    ______ ____
ROOT
ATOM      1  C   LIG    1        0.394   1.214   0.000  0.00  0.00    +0.000 C 
ENDROOT
TORSDOF 0
REMARK  Name = molecules/ZOEFCCMDUURGSE-SQKVDDBVSA-N.pdb
REMARK                            x       y       z     vdW  Elec       q    Type
REMARK                         _______ _______ _______ _____ _____    ______ ____
ROOT
ATOM      1  C   LIG    1        1.276   0.000   0.000  0.00  0.00    -0.000 C 
ENDROOT
TORSDOF 0
REMARK  Name = molecules/ZOEFCCMDUURGSE-SQKVDDBVSA-N.pdb
REMARK                            x       y       z     vdW  Elec       q    Type
REMARK                         _______ _______ _______ _____ _____    ______ ____
ROOT
ATOM      1  C   LIG    1        1.364  -1.782   0.000  0.00  0.00    +0.101 C 
ENDROOT
BRANCH   1   2
ATOM      2  C   LIG    1        2.368  -2.896   0.000  0.00  0.00    +0.040 C 
ATOM      3  C   LIG    1        1.905  -4.323   0.000  0.00  0.00    +0.158 C 
ATOM      4  O   LIG    1        2.908  -5.438   0.000  0.00  0.00    -0.293 OA
ATOM      5  C   LIG    1        0.437  -4.635   0.000  0.00  0.00    +0.082 C 
ENDBRANCH   1   2
BRANCH   1   6
ATOM      6  N   LIG    1        0.394  -1.214   0.000  0.00  0.00    -0.302 NA
ATOM      7  C   LIG    1       -0.103  -2.094   0.000  0.00  0.00    +0.091 C 
ATOM      8  H   LIG    1        0.122  -0.118   0.000  0.00  0.00    +0.123 HD
ENDBRANCH   1   6
TORSDOF 2
REMARK  Name = molecules/ZOEFCCMDUURGSE-SQKVDDBVSA-N.pdb
REMARK                            x       y       z     vdW  Elec       q    Type
REMARK                         _______ _______ _______ _____ _____    ______ ____
ROOT
ATOM      1  C   LIG    1       -1.032  -0.750   0.000  0.00  0.00    +0.000 C 
ENDROOT
TORSDOF 0
REMARK  Name = molecules/ZOEFCCMDUURGSE-SQKVDDBVSA-N.pdb
REMARK                            x       y       z     vdW  Elec       q    Type
REMARK                         _______ _______ _______ _____ _____    ______ ____
ROOT
ATOM      1  C   LIG    1       -1.032   0.750   0.000  0.00  0.00    +0.000 C 
ENDROOT
TORSDOF 0
REMARK  Name = molecules/ZOEFCCMDUURGSE-SQKVDDBVSA-N.pdb
REMARK                            x       y       z     vdW  Elec       q    Type
REMARK                         _______ _______ _______ _____ _____    ______ ____
ROOT
ATOM      1  C   LIG    1       -3.630  -0.750   0.000  0.00  0.00    +0.114 C 
ATOM      2  N   LIG    1       -4.541  -0.515   0.000  0.00  0.00    -0.227 NA
ATOM      3  C   LIG    1       -5.191  -0.431   0.000  0.00  0.00    +0.114 C 
ENDROOT
TORSDOF 0
REMARK  Name = molecules/ZOEFCCMDUURGSE-SQKVDDBVSA-N.pdb
REMARK                            x       y       z     vdW  Elec       q    Type
REMARK                         _______ _______ _______ _____ _____    ______ ____
ROOT
ATOM      1  C   LIG    1       -2.331  -1.500   0.000  0.00  0.00    +0.109 C 
ATOM      2  N   LIG    1       -2.802  -2.446   0.000  0.00  0.00    -0.250 NA
ATOM      3  H   LIG    1       -2.148  -2.989   0.000  0.00  0.00    +0.141 HD
ENDROOT
TORSDOF 0
REMARK  Name = molecules/ZOEFCCMDUURGSE-SQKVDDBVSA-N.pdb
REMARK                            x       y       z     vdW  Elec       q    Type
REMARK                         _______ _______ _______ _____ _____    ______ ____
ROOT
ATOM      1  C   LIG    1        1.321   4.067   0.000  0.00  0.00    -0.001 C 
ATOM      2  C   LIG    1        0.922   4.614   0.000  0.00  0.00    -0.000 C 
ENDROOT
BRANCH   1   3
ATOM      3  C   LIG    1        1.926   3.500   0.000  0.00  0.00    -0.017 C 
ATOM      4  C   LIG    1        2.278   2.808   0.000  0.00  0.00    +0.018 C 
ENDBRANCH   1   3
TORSDOF 1
REMARK  Name = molecules/ZOEFCCMDUURGSE-SQKVDDBVSA-N.pdb
REMARK                            x       y       z     vdW  Elec       q    Type
REMARK                         _______ _______ _______ _____ _____    ______ ____
ROOT
ATOM      1  C   LIG    1        4.179   8.658   0.000  0.00  0.00    +0.000 C 
ENDROOT
TORSDOF 0
REMARK  Name = molecules/ZOEFCCMDUURGSE-SQKVDDBVSA-N.pdb
REMARK                            x       y       z     vdW  Elec       q    Type
REMARK                         _______ _______ _______ _____ _____    ______ ____
ROOT
ATOM      1  C   LIG    1        3.716   7.232   0.000  0.00  0.00    +0.000 C 
ENDROOT
TORSDOF 0
REMARK  Name = molecules/ZOEFCCMDUURGSE-SQKVDDBVSA-N.pdb
REMARK                            x       y       z     vdW  Elec       q    Type
REMARK                         _______ _______ _______ _____ _____    ______ ____
ROOT
ATOM      1  O   LIG    1        5.678   8.606   0.000  0.00  0.00    -0.218 OA
ATOM      2  O   LIG    1        5.723   9.388   0.000  0.00  0.00    -0.038 OA
ATOM      3  H   LIG    1        6.425   8.290   0.000  0.00  0.00    +0.256 HD
ENDROOT
TORSDOF 0
REMARK  Name = molecules/ZOEFCCMDUURGSE-SQKVDDBVSA-N.pdb
REMARK                            x       y       z     vdW  Elec       q    Type
REMARK                         _______ _______ _______ _____ _____    ______ ____
ROOT
ATOM      1  C   LIG    1        5.066  10.736   0.000  0.00  0.00    +0.043 C 
ATOM      2  C   LIG    1        4.260  10.707   0.000  0.00  0.00    -0.007 C 
ATOM      3  C   LIG    1        3.639  11.200   0.000  0.00  0.00    +0.187 C 
ENDROOT
BRANCH   3   4
ATOM      4  O   LIG    1        3.870  11.969   0.000  0.00  0.00    -0.514 OA
ATOM      5  H   LIG    1        3.744  12.696   0.000  0.00  0.00    +0.291 HD
ENDBRANCH   3   4
TORSDOF 1
REMARK  Name = molecules/ZOEFCCMDUURGSE-SQKVDDBVSA-N.pdb
REMARK                            x       y       z     vdW  Elec       q    Type
REMARK                         _______ _______ _______ _____ _____    ______ ____
ROOT
ATOM      1  C   LIG    1       -0.641  12.590   0.000  0.00  0.00    +0.020 C 
ATOM      2  C   LIG    1       -2.067  13.054   0.000  0.00  0.00    +0.124 C 
ATOM      3  N   LIG    1       -3.494  13.517   0.000  0.00  0.00    -0.143 NA
ENDROOT
TORSDOF 0
REMARK  Name = molecules/ZOEFCCMDUURGSE-SQKVDDBVSA-N.pdb
REMARK                            x       y       z     vdW  Elec       q    Type
REMARK                         _______ _______ _______ _____ _____    ______ ____
ROOT
ATOM      1  C   LIG    1        0.786  12.127   0.000  0.00  0.00    +0.000 C 
ENDROOT
TORSDOF 0
REMARK  Name = molecules/ZOEFCCMDUURGSE-SQKVDDBVSA-N.pdb
REMARK                            x       y       z     vdW  Elec       q    Type
REMARK                         _______ _______ _______ _____ _____    ______ ____
ROOT
ATOM      1  C   LIG    1        2.212  11.663   0.000  0.00  0.00    +0.000 C 
ENDROOT
TORSDOF 0
REMARK  Name = molecules/ZOEFCCMDUURGSE-SQKVDDBVSA-N.pdb
REMARK                            x       y       z     vdW  Elec       q    Type
REMARK                         _______ _______ _______ _____ _____    ______ ____
ROOT
ATOM      1  C   LIG    1        4.556  12.920   0.000  0.00  0.00    +0.000 C 
ENDROOT
TORSDOF 0
REMARK  Name = molecules/ZOEFCCMDUURGSE-SQKVDDBVSA-N.pdb
REMARK                            x       y       z     vdW  Elec       q    Type
REMARK                         _______ _______ _______ _____ _____    ______ ____
ROOT
ATOM      1  C   LIG    1        8.398  12.727   0.000  0.00  0.00    -0.000 C 
ENDROOT
TORSDOF 0
REMARK  Name = molecules/ZOEFCCMDUURGSE-SQKVDDBVSA-N.pdb
REMARK                            x       y       z     vdW  Elec       q    Type
REMARK                         _______ _______ _______ _____ _____    ______ ____
ROOT
ATOM      1  C   LIG    1        7.647  11.428   0.000  0.00  0.00    +0.000 C 
ENDROOT
TORSDOF 0
REMARK  Name = molecules/ZOEFCCMDUURGSE-SQKVDDBVSA-N.pdb
REMARK                            x       y       z     vdW  Elec       q    Type
REMARK                         _______ _______ _______ _____ _____    ______ ____
ROOT
ATOM      1  O   HOH    1        3.761  11.648   0.000  0.00  0.00    +0.000 OA
ENDROOT
TORSDOF 0
REMARK  Name = molecules/ZOEFCCMDUURGSE-SQKVDDBVSA-N.pdb
REMARK                            x       y       z     vdW  Elec       q    Type
REMARK                         _______ _______ _______ _____ _____    ______ ____
ROOT
ATOM      1  C   LIG    1        2.397  12.255   0.000  0.00  0.00    +0.000 C 
ENDROOT
TORSDOF 0
REMARK  Name = molecules/ZOEFCCMDUURGSE-SQKVDDBVSA-N.pdb
REMARK                            x       y       z     vdW  Elec       q    Type
REMARK                         _______ _______ _______ _____ _____    ______ ____
ROOT
ATOM      1  C   LIG    1        1.462  16.657   0.000  0.00  0.00    +0.034 C 
ATOM      2  C   LIG    1        1.774  15.190   0.000  0.00  0.00    -0.038 C 
ATOM      3  C   LIG    1        2.085  13.723   0.000  0.00  0.00    +0.003 C 
ENDROOT
TORSDOF 0
REMARK  Name = molecules/ZOEFCCMDUURGSE-SQKVDDBVSA-N.pdb
REMARK                            x       y       z     vdW  Elec       q    Type
REMARK                         _______ _______ _______ _____ _____    ______ ____
ROOT
ATOM      1  C   LIG    1        3.241  15.502   0.000  0.00  0.00    +0.000 C 
ENDROOT
TORSDOF 0
REMARK  Name = molecules/ZOEFCCMDUURGSE-SQKVDDBVSA-N.pdb
REMARK                            x       y       z     vdW  Elec       q    Type
REMARK                         _______ _______ _______ _____ _____    ______ ____
ROOT
ATOM      1  C   LIG    1        1.906   8.317   0.000  0.00  0.00    +0.005 C 
ATOM      2  C   LIG    1        0.975   8.384   0.000  0.00  0.00    -0.005 C 
ATOM      3  C   LIG    1        0.916   7.696   0.000  0.00  0.00    -0.000 C 
ENDROOT
TORSDOF 0
REMARK  Name = molecules/ZOEFCCMDUURGSE-SQKVDDBVSA-N.pdb
REMARK                            x       y       z     vdW  Elec       q    Type
REMARK                         _______ _______ _______ _____ _____    ______ ____
ROOT
ATOM      1  C   LIG    1        1.594   9.784   0.000  0.00  0.00    +0.000 C 
ENDROOT
TORSDOF 0
REMARK  Name = molecules/ZOEFCCMDUURGSE-SQKVDDBVSA-N.pdb
REMARK                            x       y       z     vdW  Elec       q    Type
REMARK                         _______ _______ _______ _____ _____    ______ ____
ROOT
ATOM      1  O   HOH    1        3.379   8.031   0.000  0.00  0.00    -0.253 OA
ATOM      2  H   HOH    0        4.178   8.270   0.000  0.00  0.00    +0.253 HD
ENDROOT
TORSDOF 0
REMARK  Name = molecules/ZOEFCCMDUURGSE-SQKVDDBVSA-N.pdb
REMARK                            x       y       z     vdW  Elec       q    Type
REMARK                         _______ _______ _______ _____ _____    ______ ____
ROOT
ATOM      1  C   LIG    1       -3.298   4.911   0.000  0.00  0.00    +0.000 C 
ENDROOT
TORSDOF 0
REMARK  Name = molecules/ZOEFCCMDUURGSE-SQKVDDBVSA-N.pdb
REMARK                            x       y       z     vdW  Elec       q    Type
REMARK                         _______ _______ _______ _____ _____    ______ ____
ROOT
ATOM      1  C   LIG    1       -0.364   5.534   0.000  0.00  0.00    -0.006 C 
ATOM      2  C   LIG    1       -0.649   6.581   0.000  0.00  0.00    -0.035 C 
ATOM      3  C   LIG    1       -1.626   7.156   0.000  0.00  0.00    +0.041 C 
ENDROOT
TORSDOF 0
REMARK  Name = molecules/ZOEFCCMDUURGSE-SQKVDDBVSA-N.pdb
REMARK                            x       y       z     vdW  Elec       q    Type
REMARK                         _______ _______ _______ _____ _____    ______ ____
ROOT
ATOM      1  N   LIG    1       -6.233   4.287   0.000  0.00  0.00    -0.250 NA
ATOM      2  C   LIG    1       -4.766   4.599   0.000  0.00  0.00    +0.109 C 
ATOM      3  H   LIG    1       -6.719   3.039   0.000  0.00  0.00    +0.141 HD
ENDROOT
TORSDOF 0
REMARK  Name = molecules/ZOEFCCMDUURGSE-SQKVDDBVSA-N.pdb
REMARK                            x       y       z     vdW  Elec       q    Type
REMARK                         _______ _______ _______ _____ _____    ______ ____
ROOT
ATOM      1  C   LIG    1        3.145   9.703   0.000  0.00  0.00    +0.000 C 
ENDROOT
TORSDOF 0
REMARK  Name = molecules/ZOEFCCMDUURGSE-SQKVDDBVSA-N.pdb
REMARK                            x       y       z     vdW  Elec       q    Type
REMARK                         _______ _______ _______ _____ _____    ______ ____
ROOT
ATOM      1  C   LIG    1        2.030   8.699   0.000  0.00  0.00    +0.000 C 
ENDROOT
TORSDOF 0
REMARK  Name = molecules/ZOEFCCMDUURGSE-SQKVDDBVSA-N.pdb
REMARK                            x       y       z     vdW  Elec       q    Type
REMARK                         _______ _______ _______ _____ _____    ______ ____
ROOT
ATOM      1  C   LIG    1       -0.622   6.041   0.000  0.00  0.00    +0.000 C 
ENDROOT
TORSDOF 0
REMARK  Name = molecules/ZOEFCCMDUURGSE-SQKVDDBVSA-N.pdb
REMARK                            x       y       z     vdW  Elec       q    Type
REMARK                         _______ _______ _______ _____ _____    ______ ____
ROOT
ATOM      1  C   LIG    1       -2.629   8.270   0.000  0.00  0.00    -0.000 C 
ENDROOT
TORSDOF 0
REMARK  Name = molecules/ZOEFCCMDUURGSE-SQKVDDBVSA-N.pdb
REMARK                            x       y       z     vdW  Elec       q    Type
REMARK                         _______ _______ _______ _____ _____    ______ ____
ROOT
ATOM      1  N   LIG    1       -5.640  11.614   0.000  0.00  0.00    -0.268 N 
ATOM      2  H   LIG    1       -4.723  12.657   0.000  0.00  0.00    +0.258 HD
ENDROOT
BRANCH   1   3
ATOM      3  C   LIG    1       -7.108  11.303   0.000  0.00  0.00    +0.500 C 
ATOM      4  N   LIG    1       -7.571   9.876   0.000  0.00  0.00    +0.132 NA
ATOM      5  N   LIG    1       -8.111  12.417   0.000  0.00  0.00    +0.132 NA
ENDBRANCH   1   3
BRANCH   1   7
ATOM      6  C   LIG    1       -3.633   9.385   0.000  0.00  0.00    +0.040 C 
ATOM      7  C   LIG    1       -4.637  10.500   0.000  0.00  0.00    +0.196 C 
ENDBRANCH   1   7
TORSDOF 2
REMARK  Name = molecules/ZOEFCCMDUURGSE-SQKVDDBVSA-N.pdb
REMARK                            x       y       z     vdW  Elec       q    Type
REMARK                         _______ _______ _______ _____ _____    ______ ____
ROOT
ATOM      1  C   LIG    1        1.033   4.503   0.000  0.00  0.00    +0.000 C 
ENDROOT
TORSDOF 0
REMARK  Name = molecules/ZOEFCCMDUURGSE-SQKVDDBVSA-N.pdb
REMARK                            x       y       z     vdW  Elec       q    Type
REMARK                         _______ _______ _______ _____ _____    ______ ____
ROOT
ATOM      1  C   LIG    1       -4.229  -1.982   0.000  0.00  0.00    +0.202 C 
ATOM      2  O   LIG    1       -4.388  -2.902   0.000  0.00  0.00    -0.264 OA
ENDROOT
BRANCH   2   3
ATOM      3  N   LIG    1       -5.343  -2.986   0.000  0.00  0.00    -0.088 NA
ATOM      4  C   LIG    1       -5.503  -1.899   0.000  0.00  0.00    +0.149 C 
ENDBRANCH   2   3
TORSDOF 1
REMARK  Name = molecules/ZOEFCCMDUURGSE-SQKVDDBVSA-N.pdb
REMARK                            x       y       z     vdW  Elec       q    Type
REMARK                         _______ _______ _______ _____ _____    ______ ____
ROOT
ATOM      1  C   LIG    1       -0.082   3.500   0.000  0.00  0.00    +0.000 C 
ENDROOT
TORSDOF 0
REMARK  Name = molecules/ZOEFCCMDUURGSE-SQKVDDBVSA-N.pdb
REMARK                            x       y       z     vdW  Elec       q    Type
REMARK                         _______ _______ _______ _____ _____    ______ ____
ROOT
ATOM      1  O   LIG    1        2.467   4.942   0.000  0.00  0.00    +0.000 OA
ATOM      2  O   LIG    1        2.989   4.493   0.000  0.00  0.00    +0.000 OA
ENDROOT
TORSDOF 0
REMARK  Name = molecules/ZOEFCCMDUURGSE-SQKVDDBVSA-N.pdb
REMARK                            x       y       z     vdW  Elec       q    Type
REMARK                         _______ _______ _______ _____ _____    ______ ____
ROOT
ATOM      1  C   LIG    1        2.728   5.971   0.000  0.00  0.00    +0.000 C 
ENDROOT
TORSDOF 0
REMARK  Name = molecules/ZOEFCCMDUURGSE-SQKVDDBVSA-N.pdb
REMARK                            x       y       z     vdW  Elec       q    Type
REMARK                         _______ _______ _______ _____ _____    ______ ____
ROOT
ATOM      1  C   LIG    1        1.725   7.085   0.000  0.00  0.00    +0.000 C 
ENDROOT
TORSDOF 0
REMARK  Name = molecules/ZOEFCCMDUURGSE-SQKVDDBVSA-N.pdb
REMARK                            x       y       z     vdW  Elec       q    Type
REMARK                         _______ _______ _______ _____ _____    ______ ____
ROOT
ATOM      1  C   LIG    1       -0.492   8.072   0.000  0.00  0.00    +0.000 C 
ENDROOT
TORSDOF 0
REMARK  Name = molecules/ZOEFCCMDUURGSE-SQKVDDBVSA-N.pdb
REMARK                            x       y       z     vdW  Elec       q    Type
REMARK                         _______ _______ _______ _____ _____    ______ ____
ROOT
ATOM      1  C   LIG    1        4.085   4.164   0.000  0.00  0.00    +0.000 C 
ENDROOT
TORSDOF 0
REMARK  Name = molecules/ZOEFCCMDUURGSE-SQKVDDBVSA-N.pdb
REMARK                            x       y       z     vdW  Elec       q    Type
REMARK                         _______ _______ _______ _____ _____    ______ ____
ROOT
ATOM      1  C   LIG    1        7.429   7.175   0.000  0.00  0.00    +0.000 C 
ENDROOT
TORSDOF 0
REMARK  Name = molecules/ZOEFCCMDUURGSE-SQKVDDBVSA-N.pdb
REMARK                            x       y       z     vdW  Elec       q    Type
REMARK                         _______ _______ _______ _____ _____    ______ ____
ROOT
ATOM      1  C   LIG    1        5.311   7.286   0.000  0.00  0.00    +0.000 C 
ENDROOT
TORSDOF 0
REMARK  Name = molecules/ZOEFCCMDUURGSE-SQKVDDBVSA-N.pdb
REMARK                            x       y       z     vdW  Elec       q    Type
REMARK                         _______ _______ _______ _____ _____    ______ ____
ROOT
ATOM      1  O   HOH    1        2.725   4.798   0.000  0.00  0.00    +0.000 OA
ENDROOT
TORSDOF 0
REMARK  Name = molecules/ZOEFCCMDUURGSE-SQKVDDBVSA-N.pdb
REMARK                            x       y       z     vdW  Elec       q    Type
REMARK                         _______ _______ _______ _____ _____    ______ ____
ROOT
ATOM      1  C   LIG    1        6.293  -1.651   0.000  0.00  0.00    +0.018 C 
ENDROOT
BRANCH   1   2
ATOM      2  C   LIG    1        7.297  -2.766   0.000  0.00  0.00    +0.124 C 
ATOM      3  N   LIG    1        8.300  -3.881   0.000  0.00  0.00    -0.143 NA
ENDBRANCH   1   2
BRANCH   1   4
ATOM      4  C   LIG    1        5.289  -0.536   0.000  0.00  0.00    +0.002 C 
BRANCH   4   5
ATOM      5  C   LIG    1        4.286   0.578   0.000  0.00  0.00    +0.004 C 
ATOM      6  C   LIG    1        3.282   1.693   0.000  0.00  0.00    -0.004 C 
ENDBRANCH   4   5
ENDBRANCH   1   4
TORSDOF 3
REMARK  Name = molecules/ZOEFCCMDUURGSE-SQKVDDBVSA-N.pdb
REMARK                            x       y       z     vdW  Elec       q    Type
REMARK                         _______ _______ _______ _____ _____    ______ ____
ROOT
ATOM      1  C   LIG    1       -1.308   2.607   0.000  0.00  0.00    +0.000 C 
ENDROOT
TORSDOF 0
REMARK  Name = molecules/ZOEFCCMDUURGSE-SQKVDDBVSA-N.pdb
REMARK                            x       y       z     vdW  Elec       q    Type
REMARK                         _______ _______ _______ _____ _____    ______ ____
ROOT
ATOM      1  C   LIG    1       -0.193   3.611   0.000  0.00  0.00    +0.000 C 
ENDROOT
TORSDOF 0
REMARK  Name = molecules/ZOEFCCMDUURGSE-SQKVDDBVSA-N.pdb
REMARK                            x       y       z     vdW  Elec       q    Type
REMARK                         _______ _______ _______ _____ _____    ______ ____
ROOT
ATOM      1  O   HOH    1       -2.667   3.241   0.000  0.00  0.00    -0.253 OA
ATOM      2  H   HOH    0       -2.057   3.725   0.000  0.00  0.00    +0.253 HD
ENDROOT
TORSDOF 0
REMARK  Name = molecules/ZOEFCCMDUURGSE-SQKVDDBVSA-N.pdb
REMARK                            x       y       z     vdW  Elec       q    Type
REMARK                         _______ _______ _______ _____ _____    ______ ____
ROOT
ATOM      1  C   LIG    1       -1.107  -0.979   0.000  0.00  0.00    +0.000 C 
ENDROOT
TORSDOF 0
REMARK  Name = molecules/ZOEFCCMDUURGSE-SQKVDDBVSA-N.pdb
REMARK                            x       y       z     vdW  Elec       q    Type
REMARK                         _______ _______ _______ _____ _____    ______ ____
ROOT
ATOM      1  C   LIG    1       -0.566  -3.520   0.000  0.00  0.00    +0.000 C 
ENDROOT
TORSDOF 0
REMARK  Name = molecules/ZOEFCCMDUURGSE-SQKVDDBVSA-N.pdb
REMARK                            x       y       z     vdW  Elec       q    Type
REMARK                         _______ _______ _______ _____ _____    ______ ____
ROOT
ATOM      1  O   HOH    1       -3.009   2.747   0.000  0.00  0.00    -0.410 OA
ATOM      2  H   HOH    0       -3.168   3.416   0.000  0.00  0.00    +0.205 HD
ATOM      3  H   HOH    0       -4.277   3.180   0.000  0.00  0.00    +0.205 HD
ENDROOT
TORSDOF 0
REMARK  Name = molecules/ZOEFCCMDUURGSE-SQKVDDBVSA-N.pdb
REMARK                            x       y       z     vdW  Elec       q    Type
REMARK                         _______ _______ _______ _____ _____    ______ ____
ROOT
ATOM      1  C   LIG    1       -6.683  -0.275   0.000  0.00  0.00    +0.000 C 
ENDROOT
TORSDOF 0
REMARK  Name = molecules/ZOEFCCMDUURGSE-SQKVDDBVSA-N.pdb
REMARK                            x       y       z     vdW  Elec       q    Type
REMARK                         _______ _______ _______ _____ _____    ______ ____
ROOT
ATOM      1  C   LIG    1       -6.995   1.192   0.000  0.00  0.00    +0.000 C 
ENDROOT
TORSDOF 0
REMARK  Name = molecules/ZOEFCCMDUURGSE-SQKVDDBVSA-N.pdb
REMARK                            x       y       z     vdW  Elec       q    Type
REMARK                         _______ _______ _______ _____ _____    ______ ____
ROOT
ATOM      1  C   LIG    1       -5.696   1.942   0.000  0.00  0.00    +0.000 C 
ENDROOT
TORSDOF 0
REMARK  Name = molecules/ZOEFCCMDUURGSE-SQKVDDBVSA-N.pdb
REMARK                            x       y       z     vdW  Elec       q    Type
REMARK                         _______ _______ _______ _____ _____    ______ ____
ROOT
ATOM      1  H   UNK    1       29.425  17.430   0.000  0.00  0.00    +0.000 HD
ENDROOT
TORSDOF 0
REMARK  Name = molecules/ZOEFCCMDUURGSE-SQKVDDBVSA-N.pdb
REMARK                            x       y       z     vdW  Elec       q    Type
REMARK                         _______ _______ _______ _____ _____    ______ ____
ROOT
ATOM      1  H   UNK    1       23.835  16.410   0.000  0.00  0.00    +0.000 HD
ENDROOT
TORSDOF 0
REMARK  Name = molecules/ZOEFCCMDUURGSE-SQKVDDBVSA-N.pdb
REMARK                            x       y       z     vdW  Elec       q    Type
REMARK                         _______ _______ _______ _____ _____    ______ ____
ROOT
ATOM      1  H   UNK    1        9.422   5.378   0.000  0.00  0.00    +0.000 HD
ENDROOT
TORSDOF 0
REMARK  Name = molecules/ZOEFCCMDUURGSE-SQKVDDBVSA-N.pdb
REMARK                            x       y       z     vdW  Elec       q    Type
REMARK                         _______ _______ _______ _____ _____    ______ ____
ROOT
ATOM      1  H   UNK    1       -0.823   9.627   0.000  0.00  0.00    +0.000 HD
ENDROOT
TORSDOF 0
REMARK  Name = molecules/ZOEFCCMDUURGSE-SQKVDDBVSA-N.pdb
REMARK                            x       y       z     vdW  Elec       q    Type
REMARK                         _______ _______ _______ _____ _____    ______ ____
ROOT
ATOM      1  H   UNK    1        5.823   2.233   0.000  0.00  0.00    +0.000 HD
ENDROOT
TORSDOF 0
REMARK  Name = molecules/ZOEFCCMDUURGSE-SQKVDDBVSA-N.pdb
REMARK                            x       y       z     vdW  Elec       q    Type
REMARK                         _______ _______ _______ _____ _____    ______ ____
ROOT
ATOM      1  H   UNK    1       -7.242  -3.829   0.000  0.00  0.00    +0.000 HD
ENDROOT
TORSDOF 0
REMARK  Name = molecules/ZOEFCCMDUURGSE-SQKVDDBVSA-N.pdb
REMARK                            x       y       z     vdW  Elec       q    Type
REMARK                         _______ _______ _______ _____ _____    ______ ____
ROOT
ATOM      1  H   UNK    1       29.164  20.198   0.000  0.00  0.00    +0.000 HD
ENDROOT
TORSDOF 0
REMARK  Name = molecules/ZOEFCCMDUURGSE-SQKVDDBVSA-N.pdb
REMARK                            x       y       z     vdW  Elec       q    Type
REMARK                         _______ _______ _______ _____ _____    ______ ____
ROOT
ATOM      1  H   UNK    1       32.623  12.555   0.000  0.00  0.00    +0.000 HD
ENDROOT
TORSDOF 0
REMARK  Name = molecules/ZOEFCCMDUURGSE-SQKVDDBVSA-N.pdb
REMARK                            x       y       z     vdW  Elec       q    Type
REMARK                         _______ _______ _______ _____ _____    ______ ____
ROOT
ATOM      1  H   UNK    1       14.896  17.371   0.000  0.00  0.00    +0.000 HD
ENDROOT
TORSDOF 0
REMARK  Name = molecules/ZOEFCCMDUURGSE-SQKVDDBVSA-N.pdb
REMARK                            x       y       z     vdW  Elec       q    Type
REMARK                         _______ _______ _______ _____ _____    ______ ____
ROOT
ATOM      1  H   UNK    1       18.358   6.921   0.000  0.00  0.00    +0.000 HD
ENDROOT
TORSDOF 0
REMARK  Name = molecules/ZOEFCCMDUURGSE-SQKVDDBVSA-N.pdb
REMARK                            x       y       z     vdW  Elec       q    Type
REMARK                         _______ _______ _______ _____ _____    ______ ____
ROOT
ATOM      1  H   UNK    1       10.172  14.374   0.000  0.00  0.00    +0.000 HD
ENDROOT
TORSDOF 0
REMARK  Name = molecules/ZOEFCCMDUURGSE-SQKVDDBVSA-N.pdb
REMARK                            x       y       z     vdW  Elec       q    Type
REMARK                         _______ _______ _______ _____ _____    ______ ____
ROOT
ATOM      1  H   UNK    1        7.708  14.158   0.000  0.00  0.00    +0.000 HD
ENDROOT
TORSDOF 0
REMARK  Name = molecules/ZOEFCCMDUURGSE-SQKVDDBVSA-N.pdb
REMARK                            x       y       z     vdW  Elec       q    Type
REMARK                         _______ _______ _______ _____ _____    ______ ____
ROOT
ATOM      1  H   UNK    1        6.430   2.207   0.000  0.00  0.00    +0.000 HD
ENDROOT
TORSDOF 0
REMARK  Name = molecules/ZOEFCCMDUURGSE-SQKVDDBVSA-N.pdb
REMARK                            x       y       z     vdW  Elec       q    Type
REMARK                         _______ _______ _______ _____ _____    ______ ____
ROOT
ATOM      1  H   UNK    1       11.307   0.822   0.000  0.00  0.00    +0.000 HD
ENDROOT
TORSDOF 0
REMARK  Name = molecules/ZOEFCCMDUURGSE-SQKVDDBVSA-N.pdb
REMARK                            x       y       z     vdW  Elec       q    Type
REMARK                         _______ _______ _______ _____ _____    ______ ____
ROOT
ATOM      1  H   UNK    1       10.372   5.224   0.000  0.00  0.00    +0.000 HD
ENDROOT
TORSDOF 0
REMARK  Name = molecules/ZOEFCCMDUURGSE-SQKVDDBVSA-N.pdb
REMARK                            x       y       z     vdW  Elec       q    Type
REMARK                         _______ _______ _______ _____ _____    ______ ____
ROOT
ATOM      1  H   UNK    1        2.765  -0.183   0.000  0.00  0.00    +0.000 HD
ENDROOT
TORSDOF 0
REMARK  Name = molecules/ZOEFCCMDUURGSE-SQKVDDBVSA-N.pdb
REMARK                            x       y       z     vdW  Elec       q    Type
REMARK                         _______ _______ _______ _____ _____    ______ ____
ROOT
ATOM      1  H   UNK    1       -2.694   2.955   0.000  0.00  0.00    +0.000 HD
ENDROOT
TORSDOF 0
REMARK  Name = molecules/ZOEFCCMDUURGSE-SQKVDDBVSA-N.pdb
REMARK                            x       y       z     vdW  Elec       q    Type
REMARK                         _______ _______ _______ _____ _____    ______ ____
ROOT
ATOM      1  H   UNK    1        5.214   7.310   0.000  0.00  0.00    +0.000 HD
ENDROOT
TORSDOF 0
REMARK  Name = molecules/ZOEFCCMDUURGSE-SQKVDDBVSA-N.pdb
REMARK                            x       y       z     vdW  Elec       q    Type
REMARK                         _______ _______ _______ _____ _____    ______ ____
ROOT
ATOM      1  H   UNK    1       -0.177  14.017   0.000  0.00  0.00    +0.000 HD
ENDROOT
TORSDOF 0
REMARK  Name = molecules/ZOEFCCMDUURGSE-SQKVDDBVSA-N.pdb
REMARK                            x       y       z     vdW  Elec       q    Type
REMARK                         _______ _______ _______ _____ _____    ______ ____
ROOT
ATOM      1  H   UNK    1        0.152  10.767   0.000  0.00  0.00    +0.000 HD
ENDROOT
TORSDOF 0
REMARK  Name = molecules/ZOEFCCMDUURGSE-SQKVDDBVSA-N.pdb
REMARK                            x       y       z     vdW  Elec       q    Type
REMARK                         _______ _______ _______ _____ _____    ______ ____
ROOT
ATOM      1  H   UNK    1        1.578  10.304   0.000  0.00  0.00    +0.000 HD
ENDROOT
TORSDOF 0
REMARK  Name = molecules/ZOEFCCMDUURGSE-SQKVDDBVSA-N.pdb
REMARK                            x       y       z     vdW  Elec       q    Type
REMARK                         _______ _______ _______ _____ _____    ______ ____
ROOT
ATOM      1  H   UNK    1       -3.806  14.985   0.000  0.00  0.00    +0.000 HD
ENDROOT
TORSDOF 0
REMARK  Name = molecules/ZOEFCCMDUURGSE-SQKVDDBVSA-N.pdb
REMARK                            x       y       z     vdW  Elec       q    Type
REMARK                         _______ _______ _______ _____ _____    ______ ____
ROOT
ATOM      1  H   UNK    1        5.737  14.704   0.000  0.00  0.00    +0.000 HD
ENDROOT
TORSDOF 0
REMARK  Name = molecules/ZOEFCCMDUURGSE-SQKVDDBVSA-N.pdb
REMARK                            x       y       z     vdW  Elec       q    Type
REMARK                         _______ _______ _______ _____ _____    ______ ____
ROOT
ATOM      1  H   UNK    1        6.491  15.040   0.000  0.00  0.00    +0.000 HD
ENDROOT
TORSDOF 0
REMARK  Name = molecules/ZOEFCCMDUURGSE-SQKVDDBVSA-N.pdb
REMARK                            x       y       z     vdW  Elec       q    Type
REMARK                         _______ _______ _______ _____ _____    ______ ____
ROOT
ATOM      1  H   UNK    1        4.659  15.990   0.000  0.00  0.00    +0.000 HD
ENDROOT
TORSDOF 0
REMARK  Name = molecules/ZOEFCCMDUURGSE-SQKVDDBVSA-N.pdb
REMARK                            x       y       z     vdW  Elec       q    Type
REMARK                         _______ _______ _______ _____ _____    ______ ____
ROOT
ATOM      1  H   UNK    1        3.110  16.996   0.000  0.00  0.00    +0.000 HD
ENDROOT
TORSDOF 0
REMARK  Name = molecules/ZOEFCCMDUURGSE-SQKVDDBVSA-N.pdb
REMARK                            x       y       z     vdW  Elec       q    Type
REMARK                         _______ _______ _______ _____ _____    ______ ____
ROOT
ATOM      1  H   UNK    1        3.898  14.153   0.000  0.00  0.00    +0.000 HD
ENDROOT
TORSDOF 0
REMARK  Name = molecules/ZOEFCCMDUURGSE-SQKVDDBVSA-N.pdb
REMARK                            x       y       z     vdW  Elec       q    Type
REMARK                         _______ _______ _______ _____ _____    ______ ____
ROOT
ATOM      1  H   UNK    1       -3.956   6.259   0.000  0.00  0.00    +0.000 HD
ENDROOT
TORSDOF 0
REMARK  Name = molecules/ZOEFCCMDUURGSE-SQKVDDBVSA-N.pdb
REMARK                            x       y       z     vdW  Elec       q    Type
REMARK                         _______ _______ _______ _____ _____    ______ ____
ROOT
ATOM      1  H   UNK    1        0.453   4.277   0.000  0.00  0.00    +0.000 HD
ENDROOT
TORSDOF 0
REMARK  Name = molecules/ZOEFCCMDUURGSE-SQKVDDBVSA-N.pdb
REMARK                            x       y       z     vdW  Elec       q    Type
REMARK                         _______ _______ _______ _____ _____    ______ ____
ROOT
ATOM      1  H   UNK    1        1.592   4.428   0.000  0.00  0.00    +0.000 HD
ENDROOT
TORSDOF 0
REMARK  Name = molecules/ZOEFCCMDUURGSE-SQKVDDBVSA-N.pdb
REMARK                            x       y       z     vdW  Elec       q    Type
REMARK                         _______ _______ _______ _____ _____    ______ ____
ROOT
ATOM      1  H   UNK    1       -7.236   5.402   0.000  0.00  0.00    +0.000 HD
ENDROOT
TORSDOF 0
REMARK  Name = molecules/ZOEFCCMDUURGSE-SQKVDDBVSA-N.pdb
REMARK                            x       y       z     vdW  Elec       q    Type
REMARK                         _______ _______ _______ _____ _____    ______ ____
ROOT
ATOM      1  H   UNK    1       -6.867   2.928   0.000  0.00  0.00    +0.000 HD
ENDROOT
TORSDOF 0
REMARK  Name = molecules/ZOEFCCMDUURGSE-SQKVDDBVSA-N.pdb
REMARK                            x       y       z     vdW  Elec       q    Type
REMARK                         _______ _______ _______ _____ _____    ______ ____
ROOT
ATOM      1  H   UNK    1        4.242  12.695   0.000  0.00  0.00    +0.000 HD
ENDROOT
TORSDOF 0
REMARK  Name = molecules/ZOEFCCMDUURGSE-SQKVDDBVSA-N.pdb
REMARK                            x       y       z     vdW  Elec       q    Type
REMARK                         _______ _______ _______ _____ _____    ______ ____
ROOT
ATOM      1  H   UNK    1        3.849   8.379   0.000  0.00  0.00    +0.000 HD
ENDROOT
TORSDOF 0
REMARK  Name = molecules/ZOEFCCMDUURGSE-SQKVDDBVSA-N.pdb
REMARK                            x       y       z     vdW  Elec       q    Type
REMARK                         _______ _______ _______ _____ _____    ______ ____
ROOT
ATOM      1  H   UNK    1        1.170   9.928   0.000  0.00  0.00    +0.000 HD
ENDROOT
TORSDOF 0
REMARK  Name = molecules/ZOEFCCMDUURGSE-SQKVDDBVSA-N.pdb
REMARK                            x       y       z     vdW  Elec       q    Type
REMARK                         _______ _______ _______ _____ _____    ______ ____
ROOT
ATOM      1  H   UNK    1       -1.645   9.402   0.000  0.00  0.00    +0.000 HD
ENDROOT
TORSDOF 0
REMARK  Name = molecules/ZOEFCCMDUURGSE-SQKVDDBVSA-N.pdb
REMARK                            x       y       z     vdW  Elec       q    Type
REMARK                         _______ _______ _______ _____ _____    ______ ____
ROOT
ATOM      1  H   UNK    1       -3.858   7.410   0.000  0.00  0.00    +0.000 HD
ENDROOT
TORSDOF 0
REMARK  Name = molecules/ZOEFCCMDUURGSE-SQKVDDBVSA-N.pdb
REMARK                            x       y       z     vdW  Elec       q    Type
REMARK                         _______ _______ _______ _____ _____    ______ ____
ROOT
ATOM      1  H   UNK    1       -5.354  13.087   0.000  0.00  0.00    +0.000 HD
ENDROOT
TORSDOF 0
REMARK  Name = molecules/ZOEFCCMDUURGSE-SQKVDDBVSA-N.pdb
REMARK                            x       y       z     vdW  Elec       q    Type
REMARK                         _______ _______ _______ _____ _____    ______ ____
ROOT
ATOM      1  H   UNK    1       -9.038   9.564   0.000  0.00  0.00    +0.000 HD
ENDROOT
TORSDOF 0
REMARK  Name = molecules/ZOEFCCMDUURGSE-SQKVDDBVSA-N.pdb
REMARK                            x       y       z     vdW  Elec       q    Type
REMARK                         _______ _______ _______ _____ _____    ______ ____
ROOT
ATOM      1  H   UNK    1       -6.567   8.761   0.000  0.00  0.00    +0.000 HD
ENDROOT
TORSDOF 0
REMARK  Name = molecules/ZOEFCCMDUURGSE-SQKVDDBVSA-N.pdb
REMARK                            x       y       z     vdW  Elec       q    Type
REMARK                         _______ _______ _______ _____ _____    ______ ____
ROOT
ATOM      1  H   UNK    1       -9.579  12.105   0.000  0.00  0.00    +0.000 HD
ENDROOT
TORSDOF 0
REMARK  Name = molecules/ZOEFCCMDUURGSE-SQKVDDBVSA-N.pdb
REMARK                            x       y       z     vdW  Elec       q    Type
REMARK                         _______ _______ _______ _____ _____    ______ ____
ROOT
ATOM      1  H   UNK    1       -2.950   6.451   0.000  0.00  0.00    +0.000 HD
ENDROOT
TORSDOF 0
REMARK  Name = molecules/ZOEFCCMDUURGSE-SQKVDDBVSA-N.pdb
REMARK                            x       y       z     vdW  Elec       q    Type
REMARK                         _______ _______ _______ _____ _____    ______ ____
ROOT
ATOM      1  H   UNK    1       -3.443   2.476   0.000  0.00  0.00    +0.000 HD
ENDROOT
TORSDOF 0
REMARK  Name = molecules/ZOEFCCMDUURGSE-SQKVDDBVSA-N.pdb
REMARK                            x       y       z     vdW  Elec       q    Type
REMARK                         _______ _______ _______ _____ _____    ______ ____
ROOT
ATOM      1  H   UNK    1       -4.762   1.169   0.000  0.00  0.00    +0.000 HD
ENDROOT
TORSDOF 0
REMARK  Name = molecules/ZOEFCCMDUURGSE-SQKVDDBVSA-N.pdb
REMARK                            x       y       z     vdW  Elec       q    Type
REMARK                         _______ _______ _______ _____ _____    ______ ____
ROOT
ATOM      1  H   UNK    1       -2.671  -3.940   0.000  0.00  0.00    +0.000 HD
ENDROOT
TORSDOF 0
REMARK  Name = molecules/ZOEFCCMDUURGSE-SQKVDDBVSA-N.pdb
REMARK                            x       y       z     vdW  Elec       q    Type
REMARK                         _______ _______ _______ _____ _____    ______ ____
ROOT
ATOM      1  H   UNK    1       -5.032  -4.453   0.000  0.00  0.00    +0.000 HD
ENDROOT
TORSDOF 0
REMARK  Name = molecules/ZOEFCCMDUURGSE-SQKVDDBVSA-N.pdb
REMARK                            x       y       z     vdW  Elec       q    Type
REMARK                         _______ _______ _______ _____ _____    ______ ____
ROOT
ATOM      1  H   UNK    1        0.031   9.550   0.000  0.00  0.00    +0.000 HD
ENDROOT
TORSDOF 0
REMARK  Name = molecules/ZOEFCCMDUURGSE-SQKVDDBVSA-N.pdb
REMARK                            x       y       z     vdW  Elec       q    Type
REMARK                         _______ _______ _______ _____ _____    ______ ____
ROOT
ATOM      1  H   UNK    1        6.149   8.530   0.000  0.00  0.00    +0.000 HD
ENDROOT
TORSDOF 0
REMARK  Name = molecules/ZOEFCCMDUURGSE-SQKVDDBVSA-N.pdb
REMARK                            x       y       z     vdW  Elec       q    Type
REMARK                         _______ _______ _______ _____ _____    ______ ____
ROOT
ATOM      1  H   UNK    1        9.768  -3.569   0.000  0.00  0.00    +0.000 HD
ENDROOT
TORSDOF 0
REMARK  Name = molecules/ZOEFCCMDUURGSE-SQKVDDBVSA-N.pdb
REMARK                            x       y       z     vdW  Elec       q    Type
REMARK                         _______ _______ _______ _____ _____    ______ ____
ROOT
ATOM      1  H   UNK    1        7.837  -5.307   0.000  0.00  0.00    +0.000 HD
ENDROOT
TORSDOF 0
REMARK  Name = molecules/ZOEFCCMDUURGSE-SQKVDDBVSA-N.pdb
REMARK                            x       y       z     vdW  Elec       q    Type
REMARK                         _______ _______ _______ _____ _____    ______ ____
ROOT
ATOM      1  H   UNK    1        3.040   4.503   0.000  0.00  0.00    +0.000 HD
ENDROOT
TORSDOF 0
REMARK  Name = molecules/ZOEFCCMDUURGSE-SQKVDDBVSA-N.pdb
REMARK                            x       y       z     vdW  Elec       q    Type
REMARK                         _______ _______ _______ _____ _____    ______ ____
ROOT
ATOM      1  H   UNK    1       -1.529   4.292   0.000  0.00  0.00    +0.000 HD
ENDROOT
TORSDOF 0
REMARK  Name = molecules/ZOEFCCMDUURGSE-SQKVDDBVSA-N.pdb
REMARK                            x       y       z     vdW  Elec       q    Type
REMARK                         _______ _______ _______ _____ _____    ______ ____
ROOT
ATOM      1  H   UNK    1        4.375  -5.126   0.000  0.00  0.00    +0.000 HD
ENDROOT
TORSDOF 0
REMARK  Name = molecules/ZOEFCCMDUURGSE-SQKVDDBVSA-N.pdb
REMARK                            x       y       z     vdW  Elec       q    Type
REMARK                         _______ _______ _______ _____ _____    ______ ____
ROOT
ATOM      1  H   UNK    1       -1.915  -4.178   0.000  0.00  0.00    +0.000 HD
ENDROOT
TORSDOF 0
REMARK  Name = molecules/ZOEFCCMDUURGSE-SQKVDDBVSA-N.pdb
REMARK                            x       y       z     vdW  Elec       q    Type
REMARK                         _______ _______ _______ _____ _____    ______ ____
ROOT
ATOM      1  H   UNK    1       -2.623  -1.274   0.000  0.00  0.00    +0.000 HD
ENDROOT
TORSDOF 0
REMARK  Name = molecules/ZOEFCCMDUURGSE-SQKVDDBVSA-N.pdb
REMARK                            x       y       z     vdW  Elec       q    Type
REMARK                         _______ _______ _______ _____ _____    ______ ____
ROOT
ATOM      1  H   UNK    1       -7.605   2.563   0.000  0.00  0.00    +0.000 HD
ENDROOT
TORSDOF 0
REMARK  Name = molecules/ZOEFCCMDUURGSE-SQKVDDBVSA-N.pdb
REMARK                            x       y       z     vdW  Elec       q    Type
REMARK                         _______ _______ _______ _____ _____    ______ ____
ROOT
ATOM      1  H   UNK    1       -8.422   0.729   0.000  0.00  0.00    +0.000 HD
ENDROOT
TORSDOF 0
REMARK  Name = molecules/ZOEFCCMDUURGSE-SQKVDDBVSA-N.pdb
REMARK                            x       y       z     vdW  Elec       q    Type
REMARK                         _______ _______ _______ _____ _____    ______ ____
ROOT
ATOM      1  H   UNK    1       -4.467   2.803   0.000  0.00  0.00    +0.000 HD
ENDROOT
TORSDOF 0
