REMARK  Name = molecules/ZOWYFYXTIWQBEP-UHFFFAOYSA-N.pdb
REMARK                            x       y       z     vdW  Elec       q    Type
REMARK                         _______ _______ _______ _____ _____    ______ ____
ROOT
ATOM      1  C   LIG    1        0.321  -0.354   0.467  0.00  0.00    +0.053 A 
ATOM      2  N   LIG    1       -0.413  -1.122   1.280  0.00  0.00    -0.259 NA
ATOM      3  C   LIG    1        0.065  -1.625   2.435  0.00  0.00    +0.111 A 
ATOM      4  C   LIG    1        1.355  -1.361   2.826  0.00  0.00    +0.028 A 
ATOM      5  C   LIG    1        2.147  -0.585   2.036  0.00  0.00    -0.011 A 
ATOM      6  C   LIG    1        3.457  -0.291   2.392  0.00  0.00    +0.058 A 
ATOM      7  C   LIG    1        4.226   0.498   1.567  0.00  0.00    +0.162 A 
ATOM      8  C   LIG    1        3.729   1.016   0.375  0.00  0.00    +0.163 A 
ATOM      9  C   LIG    1        2.430   0.710   0.046  0.00  0.00    +0.059 A 
ATOM     10  C   LIG    1        1.621  -0.077   0.843  0.00  0.00    +0.007 A 
ENDROOT
BRANCH   1  11
ATOM     11  C   LIG    1       -0.183   0.203  -0.796  0.00  0.00    +0.091 C 
BRANCH  11  12
ATOM     12  C   LIG    1       -1.615  -0.166  -1.034  0.00  0.00    -0.038 A 
ATOM     13  C   LIG    1       -2.647   0.640  -0.582  0.00  0.00    +0.053 A 
ATOM     14  C   LIG    1       -3.972   0.324  -0.784  0.00  0.00    +0.162 A 
ATOM     15  C   LIG    1       -4.335  -0.839  -1.464  0.00  0.00    +0.162 A 
ATOM     16  C   LIG    1       -3.303  -1.636  -1.911  0.00  0.00    +0.050 A 
ATOM     17  C   LIG    1       -1.966  -1.315  -1.706  0.00  0.00    +0.008 A 
BRANCH  14  18
ATOM     18  O   LIG    1       -4.955   1.154  -0.318  0.00  0.00    -0.489 OA
BRANCH  18  19
ATOM     19  C   LIG    1       -4.765   2.346   0.374  0.00  0.00    +0.226 C 
ATOM     20  C   LIG    1       -4.027   2.234   1.669  0.00  0.00    +0.048 C 
ENDBRANCH  18  19
ENDBRANCH  14  18
BRANCH  15  21
ATOM     21  O   LIG    1       -5.675  -1.143  -1.660  0.00  0.00    -0.489 OA
BRANCH  21  22
ATOM     22  C   LIG    1       -6.152  -2.284  -2.335  0.00  0.00    +0.226 C 
ATOM     23  C   LIG    1       -5.720  -2.380  -3.765  0.00  0.00    +0.048 C 
ENDBRANCH  21  22
ENDBRANCH  15  21
ENDBRANCH  11  12
ENDBRANCH   1  11
BRANCH   7  24
ATOM     24  O   LIG    1        5.524   0.766   1.958  0.00  0.00    -0.489 OA
BRANCH  24  25
ATOM     25  C   LIG    1        6.157   0.315   3.114  0.00  0.00    +0.226 C 
ATOM     26  C   LIG    1        6.232  -1.194   3.184  0.00  0.00    +0.048 C 
ENDBRANCH  24  25
ENDBRANCH   7  24
BRANCH   8  27
ATOM     27  O   LIG    1        4.528   1.799  -0.419  0.00  0.00    -0.489 OA
BRANCH  27  28
ATOM     28  C   LIG    1        4.159   2.376  -1.630  0.00  0.00    +0.226 C 
ATOM     29  C   LIG    1        3.748   1.419  -2.704  0.00  0.00    +0.048 C 
ENDBRANCH  27  28
ENDBRANCH   8  27
TORSDOF 10
