REMARK  Name = molecules/ZPAKPRAICRBAOD-UHFFFAOYSA-N.pdb
REMARK                            x       y       z     vdW  Elec       q    Type
REMARK                         _______ _______ _______ _____ _____    ______ ____
ROOT
ATOM      1  C   LIG    1       -1.134  -1.059   0.015  0.00  0.00    +0.017 A 
ATOM      2  C   LIG    1       -0.690  -0.121   0.915  0.00  0.00    +0.012 A 
ATOM      3  C   LIG    1        0.601   0.311   0.943  0.00  0.00    +0.009 A 
ATOM      4  C   LIG    1        1.547  -0.190   0.038  0.00  0.00    -0.018 A 
ATOM      5  C   LIG    1        1.108  -1.134  -0.869  0.00  0.00    +0.009 A 
ATOM      6  C   LIG    1       -0.226  -1.565  -0.878  0.00  0.00    +0.012 A 
ENDROOT
BRANCH   4   7
ATOM      7  C   LIG    1        2.903   0.294   0.094  0.00  0.00    -0.018 A 
ATOM      8  C   LIG    1        3.109   1.616   0.475  0.00  0.00    +0.008 A 
ATOM      9  C   LIG    1        4.394   2.126   0.535  0.00  0.00    +0.001 A 
ATOM     10  C   LIG    1        5.502   1.373   0.229  0.00  0.00    +0.000 A 
ATOM     11  C   LIG    1        5.297   0.046  -0.154  0.00  0.00    +0.001 A 
ATOM     12  C   LIG    1        4.000  -0.465  -0.213  0.00  0.00    +0.008 A 
ENDBRANCH   4   7
BRANCH   1  13
ATOM     13  C   LIG    1       -2.526  -1.476  -0.026  0.00  0.00    +0.164 C 
ATOM     14  O   LIG    1       -2.895  -2.279  -0.951  0.00  0.00    -0.292 OA
BRANCH  13  15
ATOM     15  C   LIG    1       -3.567  -1.053   0.914  0.00  0.00    +0.091 C 
BRANCH  15  16
ATOM     16  C   LIG    1       -4.816  -0.548   0.228  0.00  0.00    +0.128 C 
BRANCH  16  17
ATOM     17  C   LIG    1       -4.490   0.650  -0.591  0.00  0.00    +0.305 C 
ATOM     18  O   LIG    1       -3.310   1.061  -0.590  0.00  0.00    -0.251 OA
BRANCH  17  19
ATOM     19  O   LIG    1       -5.424   1.334  -1.355  0.00  0.00    -0.481 OA
ATOM     20  H   LIG    1       -5.600   2.330  -1.280  0.00  0.00    +0.295 HD
ENDBRANCH  17  19
ENDBRANCH  16  17
ENDBRANCH  15  16
ENDBRANCH  13  15
ENDBRANCH   1  13
TORSDOF 6
