REMARK  Name = molecules/ZPCCSZFPOXBNDL-NOJGBCAOSA-N.pdb
REMARK                            x       y       z     vdW  Elec       q    Type
REMARK                         _______ _______ _______ _____ _____    ______ ____
ROOT
ATOM      1  C   LIG    1        0.051  -1.757  -0.977  0.00  0.00    +0.157 C 
ATOM      2  C   LIG    1       -0.197  -3.216  -1.180  0.00  0.00    +0.188 C 
ATOM      3  C   LIG    1       -0.551  -3.921   0.113  0.00  0.00    +0.218 C 
ATOM      4  C   LIG    1       -1.948  -4.384   0.300  0.00  0.00    +0.167 C 
ATOM      5  C   LIG    1       -2.608  -5.024  -0.816  0.00  0.00    +0.311 C 
ATOM      6  O   LIG    1       -3.954  -5.342  -0.805  0.00  0.00    -0.461 OA
ATOM      7  C   LIG    1       -5.030  -4.597  -0.369  0.00  0.00    +0.177 C 
ATOM      8  C   LIG    1       -4.961  -3.137  -0.764  0.00  0.00    +0.071 C 
ATOM      9  C   LIG    1       -6.305  -2.575  -1.032  0.00  0.00    -0.023 C 
ATOM     10  C   LIG    1       -6.530  -1.572  -1.840  0.00  0.00    -0.004 C 
ATOM     11  C   LIG    1       -5.581  -0.803  -2.627  0.00  0.00    -0.002 C 
ATOM     12  C   LIG    1       -4.650   0.020  -2.183  0.00  0.00    +0.004 C 
ATOM     13  C   LIG    1       -4.356   0.353  -0.784  0.00  0.00    +0.147 C 
ATOM     14  C   LIG    1       -2.876   0.246  -0.503  0.00  0.00    +0.019 C 
ATOM     15  C   LIG    1       -2.163   1.543  -0.673  0.00  0.00    +0.010 C 
ATOM     16  C   LIG    1       -2.297  -0.856  -1.343  0.00  0.00    +0.012 C 
ATOM     17  C   LIG    1       -6.308  -5.203  -0.907  0.00  0.00    +0.052 C 
ATOM     18  O   LIG    1       -2.003  -5.335  -1.864  0.00  0.00    -0.251 OA
ATOM     19  C   LIG    1       -0.823  -0.739  -1.611  0.00  0.00    +0.028 C 
ENDROOT
BRANCH   2  20
ATOM     20  O   LIG    1        1.008  -3.840  -1.586  0.00  0.00    -0.374 OA
ATOM     21  C   LIG    1        1.032  -4.533  -2.728  0.00  0.00    +0.194 C 
ENDBRANCH   2  20
BRANCH  13  22
ATOM     22  O   LIG    1       -4.775   1.616  -0.397  0.00  0.00    -0.344 OA
BRANCH  22  23
ATOM     23  C   LIG    1       -5.657   1.641   0.636  0.00  0.00    +0.251 C 
ATOM     24  C   LIG    1       -5.039   2.481   1.768  0.00  0.00    +0.063 C 
ATOM     25  C   LIG    1       -6.085   3.479   2.252  0.00  0.00    +0.026 C 
ATOM     26  C   LIG    1       -6.396   4.359   1.096  0.00  0.00    +0.085 C 
ATOM     27  C   LIG    1       -6.854   3.536  -0.070  0.00  0.00    +0.135 C 
ATOM     28  C   LIG    1       -5.921   3.799  -1.242  0.00  0.00    +0.039 C 
ATOM     29  O   LIG    1       -6.839   2.215   0.223  0.00  0.00    -0.347 OA
BRANCH  26  30
ATOM     30  N   LIG    1       -7.330   5.421   1.423  0.00  0.00    -0.303 NA
ATOM     31  C   LIG    1       -6.720   6.196   2.491  0.00  0.00    +0.105 C 
ATOM     32  C   LIG    1       -8.613   4.929   1.823  0.00  0.00    +0.105 C 
ENDBRANCH  26  30
ENDBRANCH  22  23
ENDBRANCH  13  22
BRANCH   1  33
ATOM     33  O   LIG    1        1.360  -1.475  -1.433  0.00  0.00    -0.343 OA
BRANCH  33  34
ATOM     34  C   LIG    1        2.171  -0.943  -0.443  0.00  0.00    +0.281 C 
ATOM     35  C   LIG    1        3.483  -1.673  -0.370  0.00  0.00    +0.190 C 
ATOM     36  C   LIG    1        4.503  -0.974   0.505  0.00  0.00    +0.121 C 
ATOM     37  C   LIG    1        4.623   0.512   0.204  0.00  0.00    +0.169 C 
ATOM     38  C   LIG    1        3.197   1.071   0.084  0.00  0.00    +0.149 C 
ATOM     39  C   LIG    1        3.209   2.517  -0.297  0.00  0.00    +0.041 C 
ATOM     40  O   LIG    1        2.521   0.367  -0.896  0.00  0.00    -0.343 OA
BRANCH  36  41
ATOM     41  N   LIG    1        5.745  -1.607   0.372  0.00  0.00    -0.301 NA
ATOM     42  C   LIG    1        6.495  -1.960   1.502  0.00  0.00    +0.105 C 
ATOM     43  C   LIG    1        6.409  -1.636  -0.853  0.00  0.00    +0.105 C 
ENDBRANCH  36  41
BRANCH  35  44
ATOM     44  O   LIG    1        3.272  -2.925   0.200  0.00  0.00    -0.385 OA
ATOM     45  H   LIG    1        3.997  -3.193   0.806  0.00  0.00    +0.210 HD
ENDBRANCH  35  44
BRANCH  37  46
ATOM     46  O   LIG    1        5.261   1.073   1.291  0.00  0.00    -0.344 OA
BRANCH  46  47
ATOM     47  C   LIG    1        6.440   1.749   0.990  0.00  0.00    +0.254 C 
ATOM     48  O   LIG    1        7.541   1.187   1.571  0.00  0.00    -0.346 OA
ATOM     49  C   LIG    1        8.734   1.823   1.433  0.00  0.00    +0.149 C 
ATOM     50  C   LIG    1        8.641   3.286   1.093  0.00  0.00    +0.174 C 
ATOM     51  C   LIG    1        7.444   3.805   1.902  0.00  0.00    +0.096 C 
ATOM     52  C   LIG    1        7.439   5.315   1.917  0.00  0.00    +0.044 C 
ATOM     53  C   LIG    1        9.517   1.159   0.302  0.00  0.00    +0.041 C 
ATOM     54  C   LIG    1        6.233   3.211   1.245  0.00  0.00    +0.098 C 
BRANCH  51  55
ATOM     55  O   LIG    1        7.512   3.362   3.203  0.00  0.00    -0.386 OA
ATOM     56  H   LIG    1        6.869   3.901   3.744  0.00  0.00    +0.210 HD
ENDBRANCH  51  55
BRANCH  50  57
ATOM     57  O   LIG    1        9.820   3.902   1.448  0.00  0.00    -0.386 OA
ATOM     58  H   LIG    1       10.523   3.225   1.653  0.00  0.00    +0.210 HD
ENDBRANCH  50  57
ENDBRANCH  46  47
ENDBRANCH  37  46
ENDBRANCH  33  34
ENDBRANCH   1  33
BRANCH   3  59
ATOM     59  O   LIG    1        0.285  -5.066   0.281  0.00  0.00    -0.458 OA
BRANCH  59  60
ATOM     60  C   LIG    1        1.186  -5.158   1.326  0.00  0.00    +0.304 C 
ATOM     61  O   LIG    1        1.249  -4.199   2.135  0.00  0.00    -0.251 OA
ATOM     62  C   LIG    1        2.066  -6.370   1.493  0.00  0.00    +0.136 C 
ENDBRANCH  59  60
ENDBRANCH   3  59
BRANCH  19  63
ATOM     63  C   LIG    1       -0.502  -0.468  -3.045  0.00  0.00    +0.076 C 
BRANCH  63  64
ATOM     64  C   LIG    1       -0.619  -1.572  -3.996  0.00  0.00    +0.223 C 
ATOM     65  O   LIG    1        0.176  -1.741  -4.932  0.00  0.00    -0.301 OA
ENDBRANCH  63  64
ENDBRANCH  19  63
TORSDOF 16
