REMARK  Name = molecules/ZPFXAOWNKLFJDN-UHFFFAOYSA-N.pdb
REMARK                            x       y       z     vdW  Elec       q    Type
REMARK                         _______ _______ _______ _____ _____    ______ ____
ROOT
ATOM      1  N   LIG    1        0.149  -0.976  -0.763  0.00  0.00    -0.303 NA
ENDROOT
BRANCH   1   2
ATOM      2  C   LIG    1        0.883  -2.216  -0.868  0.00  0.00    +0.081 C 
ATOM      3  C   LIG    1        0.077  -3.419  -1.164  0.00  0.00    +0.020 C 
ENDBRANCH   1   2
BRANCH   1   4
ATOM      4  C   LIG    1        0.958   0.107  -0.453  0.00  0.00    +0.084 C 
BRANCH   4   5
ATOM      5  C   LIG    1        1.123   0.475   0.994  0.00  0.00    +0.020 C 
BRANCH   5   6
ATOM      6  C   LIG    1        2.092   1.636   1.173  0.00  0.00    +0.036 C 
BRANCH   6   7
ATOM      7  C   LIG    1        3.444   1.383   0.703  0.00  0.00    -0.047 A 
ATOM      8  C   LIG    1        4.372   0.830   1.599  0.00  0.00    +0.003 A 
ATOM      9  C   LIG    1        5.681   0.570   1.220  0.00  0.00    +0.000 A 
ATOM     10  C   LIG    1        6.097   0.857  -0.060  0.00  0.00    +0.000 A 
ATOM     11  C   LIG    1        5.194   1.401  -0.951  0.00  0.00    +0.000 A 
ATOM     12  C   LIG    1        3.872   1.663  -0.568  0.00  0.00    +0.003 A 
ENDBRANCH   6   7
ENDBRANCH   5   6
ENDBRANCH   4   5
ENDBRANCH   1   4
BRANCH   1  13
ATOM     13  C   LIG    1       -1.211  -1.053  -0.616  0.00  0.00    +0.084 C 
BRANCH  13  14
ATOM     14  C   LIG    1       -1.883  -1.159   0.686  0.00  0.00    +0.020 C 
BRANCH  14  15
ATOM     15  C   LIG    1       -3.408  -1.259   0.457  0.00  0.00    +0.036 C 
BRANCH  15  16
ATOM     16  C   LIG    1       -3.946  -0.079  -0.228  0.00  0.00    -0.047 A 
ATOM     17  C   LIG    1       -4.395   1.008   0.522  0.00  0.00    +0.003 A 
ATOM     18  C   LIG    1       -4.914   2.138  -0.056  0.00  0.00    +0.000 A 
ATOM     19  C   LIG    1       -5.000   2.214  -1.429  0.00  0.00    +0.000 A 
ATOM     20  C   LIG    1       -4.564   1.156  -2.192  0.00  0.00    +0.000 A 
ATOM     21  C   LIG    1       -4.043   0.021  -1.596  0.00  0.00    +0.003 A 
ENDBRANCH  15  16
ENDBRANCH  14  15
ENDBRANCH  13  14
ENDBRANCH   1  13
TORSDOF 9
