REMARK  Name = molecules/ZPMKQFOGINQDAM-UHFFFAOYSA-N.pdb
REMARK                            x       y       z     vdW  Elec       q    Type
REMARK                         _______ _______ _______ _____ _____    ______ ____
ROOT
ATOM      1  C   LIG    1        0.458  -0.739  -0.543  0.00  0.00    -0.020 C 
ATOM      2  C   LIG    1       -0.722  -0.448  -0.100  0.00  0.00    -0.014 C 
ATOM      3  C   LIG    1       -1.677  -1.572   0.151  0.00  0.00    -0.014 A 
ATOM      4  C   LIG    1       -1.051  -2.705   0.571  0.00  0.00    +0.009 A 
ATOM      5  C   LIG    1       -1.813  -3.825   0.808  0.00  0.00    +0.001 A 
ATOM      6  C   LIG    1       -3.171  -3.756   0.614  0.00  0.00    +0.000 A 
ATOM      7  C   LIG    1       -3.780  -2.595   0.191  0.00  0.00    +0.004 A 
ATOM      8  C   LIG    1       -3.047  -1.436  -0.062  0.00  0.00    -0.039 A 
ATOM      9  C   LIG    1       -3.924  -0.361  -0.471  0.00  0.00    +0.040 C 
ATOM     10  C   LIG    1       -3.388   0.912  -0.962  0.00  0.00    +0.040 C 
ATOM     11  C   LIG    1       -2.252   1.529  -0.294  0.00  0.00    -0.039 A 
ATOM     12  C   LIG    1       -2.384   2.882  -0.013  0.00  0.00    +0.004 A 
ATOM     13  C   LIG    1       -1.388   3.584   0.640  0.00  0.00    +0.000 A 
ATOM     14  C   LIG    1       -0.227   2.963   1.039  0.00  0.00    +0.001 A 
ATOM     15  C   LIG    1       -0.054   1.631   0.784  0.00  0.00    +0.009 A 
ATOM     16  C   LIG    1       -1.071   0.960   0.124  0.00  0.00    -0.014 A 
ENDROOT
BRANCH   1  17
ATOM     17  C   LIG    1        1.632   0.075  -0.904  0.00  0.00    +0.014 C 
BRANCH  17  18
ATOM     18  C   LIG    1        2.824  -0.400  -0.106  0.00  0.00    -0.025 C 
BRANCH  18  19
ATOM     19  N   LIG    1        4.016   0.380  -0.414  0.00  0.00    +0.419 N 
ATOM     20  C   LIG    1        3.948   1.683   0.222  0.00  0.00    -0.041 C 
ATOM     21  C   LIG    1        5.196  -0.345   0.030  0.00  0.00    -0.041 C 
ATOM     22  O   LIG    1        4.066   0.484  -1.764  0.00  0.00    -0.293 OA
ENDBRANCH  18  19
ENDBRANCH  17  18
ENDBRANCH   1  17
TORSDOF 3
