REMARK  Name = molecules/ZPMNHBXQOOVQJL-UHFFFAOYSA-N.pdb
REMARK                            x       y       z     vdW  Elec       q    Type
REMARK                         _______ _______ _______ _____ _____    ______ ____
ROOT
ATOM      1  N   LIG    1       -1.195  -0.238   0.254  0.00  0.00    -0.308 N 
ATOM      2  C   LIG    1       -2.205  -0.388   1.232  0.00  0.00    +0.248 C 
ATOM      3  O   LIG    1       -1.856  -0.746   2.421  0.00  0.00    -0.270 OA
ATOM      4  H   LIG    1       -1.458   0.043  -0.706  0.00  0.00    +0.149 HD
ENDROOT
BRANCH   2   5
ATOM      5  C   LIG    1       -3.603  -0.161   0.970  0.00  0.00    +0.080 A 
ATOM      6  C   LIG    1       -4.495  -0.344   2.029  0.00  0.00    +0.038 A 
ATOM      7  C   LIG    1       -5.853  -0.149   1.897  0.00  0.00    +0.063 A 
ATOM      8 CL   LIG    1       -6.939  -0.389   3.252  0.00  0.00    -0.082 Cl
ATOM      9  C   LIG    1       -6.346   0.241   0.670  0.00  0.00    +0.050 A 
ATOM     10  C   LIG    1       -5.506   0.433  -0.403  0.00  0.00    +0.020 A 
ATOM     11  C   LIG    1       -5.760   0.843  -1.807  0.00  0.00    +0.081 C 
ATOM     12  C   LIG    1       -4.377   1.327  -2.230  0.00  0.00    +0.234 C 
ATOM     13  O   LIG    1       -3.526   0.484  -1.448  0.00  0.00    -0.491 OA
ATOM     14  C   LIG    1       -4.143   0.226  -0.227  0.00  0.00    +0.138 A 
BRANCH   9  15
ATOM     15  N   LIG    1       -7.733   0.457   0.486  0.00  0.00    -0.357 N 
ATOM     16  H   LIG    1       -8.339   0.677   1.329  0.00  0.00    +0.142 HD
ATOM     17  H   LIG    1       -8.187   0.409  -0.442  0.00  0.00    +0.142 HD
ENDBRANCH   9  15
ENDBRANCH   2   5
BRANCH   1  21
ATOM     18  N   LIG    1        2.928  -0.584   0.140  0.00  0.00    -0.302 NA
ATOM     19  C   LIG    1        2.338   0.660   0.023  0.00  0.00    +0.086 C 
ATOM     20  C   LIG    1        0.915   0.818   0.386  0.00  0.00    +0.037 C 
ATOM     21  C   LIG    1        0.220  -0.478   0.590  0.00  0.00    +0.076 C 
ATOM     22  C   LIG    1        0.746  -1.634  -0.213  0.00  0.00    +0.037 C 
ATOM     23  C   LIG    1        2.247  -1.755  -0.141  0.00  0.00    +0.086 C 
BRANCH  18  24
ATOM     24  C   LIG    1        4.314  -0.626   0.495  0.00  0.00    +0.086 C 
BRANCH  24  25
ATOM     25  C   LIG    1        5.080  -0.075  -0.667  0.00  0.00    +0.043 C 
BRANCH  25  26
ATOM     26  C   LIG    1        6.550  -0.019  -0.586  0.00  0.00    +0.160 C 
BRANCH  26  28
ATOM     27  C   LIG    1        7.199   0.627   1.611  0.00  0.00    +0.193 C 
ATOM     28  O   LIG    1        7.217   0.703   0.287  0.00  0.00    -0.383 OA
ENDBRANCH  26  28
ENDBRANCH  25  26
ENDBRANCH  24  25
ENDBRANCH  18  24
ENDBRANCH   1  21
TORSDOF 7
