REMARK  Name = molecules/ZPQPDBIHYCBNIG-ZDUSSCGKSA-N.pdb
REMARK                            x       y       z     vdW  Elec       q    Type
REMARK                         _______ _______ _______ _____ _____    ______ ____
ROOT
ATOM      1  C   LIG    1       -1.699  -0.892  -0.486  0.00  0.00    +0.163 A 
ATOM      2  C   LIG    1       -3.063  -0.643  -0.271  0.00  0.00    +0.177 A 
ATOM      3  O   LIG    1       -3.617   0.459   0.136  0.00  0.00    -0.448 OA
ATOM      4  C   LIG    1       -4.932   0.311   0.221  0.00  0.00    +0.171 A 
ATOM      5  C   LIG    1       -5.266  -0.986  -0.160  0.00  0.00    +0.061 A 
ATOM      6  C   LIG    1       -4.045  -1.586  -0.474  0.00  0.00    +0.025 A 
ATOM      7  C   LIG    1       -3.675  -2.850  -0.912  0.00  0.00    +0.012 A 
ATOM      8  C   LIG    1       -2.346  -3.128  -1.133  0.00  0.00    +0.004 A 
ATOM      9  C   LIG    1       -1.369  -2.152  -0.920  0.00  0.00    +0.049 A 
ENDROOT
BRANCH   4  10
ATOM     10  C   LIG    1       -5.865   1.330   0.641  0.00  0.00    +0.195 C 
ATOM     11  C   LIG    1       -5.338   2.674   1.028  0.00  0.00    +0.095 C 
ATOM     12  O   LIG    1       -7.098   1.082   0.679  0.00  0.00    -0.289 OA
ENDBRANCH   4  10
BRANCH   1  13
ATOM     13  O   LIG    1       -0.778   0.113  -0.259  0.00  0.00    -0.486 OA
BRANCH  13  14
ATOM     14  C   LIG    1        0.581  -0.117  -0.469  0.00  0.00    +0.261 C 
BRANCH  14  15
ATOM     15  C   LIG    1        1.417   1.109  -0.155  0.00  0.00    +0.166 C 
BRANCH  15  16
ATOM     16  O   LIG    1        1.157   1.397   1.204  0.00  0.00    -0.387 OA
ATOM     17  H   LIG    1        1.380   0.635   1.789  0.00  0.00    +0.210 HD
ENDBRANCH  15  16
BRANCH  15  18
ATOM     18  C   LIG    1        2.885   0.916  -0.344  0.00  0.00    +0.115 C 
BRANCH  18  19
ATOM     19  N   LIG    1        3.454  -0.172   0.407  0.00  0.00    -0.311 NA
ATOM     20  H   LIG    1        3.256  -0.112   1.431  0.00  0.00    +0.122 HD
BRANCH  19  21
ATOM     21  C   LIG    1        4.886  -0.256   0.279  0.00  0.00    +0.048 C 
ATOM     22  C   LIG    1        5.508   0.997   0.884  0.00  0.00    +0.023 C 
ATOM     23  C   LIG    1        5.375  -0.343  -1.137  0.00  0.00    +0.023 C 
ENDBRANCH  19  21
ENDBRANCH  18  19
ENDBRANCH  15  18
ENDBRANCH  14  15
ENDBRANCH  13  14
ENDBRANCH   1  13
TORSDOF 8
