REMARK  Name = molecules/ZQDWXGKKHFNSQK-OAQYLSRUSA-N.pdb
REMARK                            x       y       z     vdW  Elec       q    Type
REMARK                         _______ _______ _______ _____ _____    ______ ____
ROOT
ATOM      1  C   LIG    1       -2.221   0.096   1.166  0.00  0.00    +0.117 C 
ENDROOT
BRANCH   1   2
ATOM      2  C   LIG    1       -2.758   1.416   0.789  0.00  0.00    -0.026 A 
ATOM      3  C   LIG    1       -3.556   2.102   1.715  0.00  0.00    +0.007 A 
ATOM      4  C   LIG    1       -4.096   3.335   1.434  0.00  0.00    +0.020 A 
ATOM      5  C   LIG    1       -3.878   3.958   0.224  0.00  0.00    +0.041 A 
ATOM      6 CL   LIG    1       -4.577   5.543  -0.127  0.00  0.00    -0.084 Cl
ATOM      7  C   LIG    1       -3.098   3.302  -0.702  0.00  0.00    +0.020 A 
ATOM      8  C   LIG    1       -2.554   2.054  -0.409  0.00  0.00    +0.007 A 
ENDBRANCH   1   2
BRANCH   1   9
ATOM      9  N   LIG    1       -0.856  -0.134   0.948  0.00  0.00    -0.289 NA
ATOM     10  C   LIG    1        0.084   0.684   1.642  0.00  0.00    +0.100 C 
ATOM     11  C   LIG    1        1.407   0.613   0.907  0.00  0.00    +0.100 C 
ATOM     12  N   LIG    1        1.800  -0.756   0.772  0.00  0.00    -0.298 NA
ATOM     13  C   LIG    1        0.823  -1.513   0.027  0.00  0.00    +0.100 C 
ATOM     14  C   LIG    1       -0.404  -0.650  -0.287  0.00  0.00    +0.100 C 
BRANCH  12  15
ATOM     15  C   LIG    1        3.063  -0.891   0.049  0.00  0.00    +0.112 C 
BRANCH  15  16
ATOM     16  C   LIG    1        4.210  -0.358   0.835  0.00  0.00    +0.175 C 
BRANCH  16  17
ATOM     17  O   LIG    1        5.399  -0.489   0.184  0.00  0.00    -0.376 OA
BRANCH  17  18
ATOM     18  C   LIG    1        5.512   0.162  -1.030  0.00  0.00    +0.187 C 
BRANCH  18  19
ATOM     19  C   LIG    1        6.908  -0.040  -1.624  0.00  0.00    +0.184 C 
BRANCH  19  20
ATOM     20  O   LIG    1        7.082  -1.411  -1.799  0.00  0.00    -0.393 OA
ATOM     21  H   LIG    1        7.084  -1.560  -2.797  0.00  0.00    +0.209 HD
ENDBRANCH  19  20
ENDBRANCH  18  19
ENDBRANCH  17  18
ENDBRANCH  16  17
ENDBRANCH  15  16
ENDBRANCH  12  15
ENDBRANCH   1   9
BRANCH   1  22
ATOM     22  C   LIG    1       -3.019  -1.017   0.549  0.00  0.00    -0.026 A 
ATOM     23  C   LIG    1       -2.721  -2.341   0.783  0.00  0.00    +0.005 A 
ATOM     24  C   LIG    1       -3.449  -3.366   0.217  0.00  0.00    +0.000 A 
ATOM     25  C   LIG    1       -4.514  -3.100  -0.614  0.00  0.00    +0.000 A 
ATOM     26  C   LIG    1       -4.822  -1.775  -0.857  0.00  0.00    +0.000 A 
ATOM     27  C   LIG    1       -4.088  -0.743  -0.285  0.00  0.00    +0.005 A 
ENDBRANCH   1  22
TORSDOF 9
