REMARK  Name = molecules/ZQMQGBHQZZQTJE-UHFFFAOYSA-N.pdb
REMARK                            x       y       z     vdW  Elec       q    Type
REMARK                         _______ _______ _______ _____ _____    ______ ____
ROOT
ATOM      1  N   LIG    1        0.105   0.743   2.325  0.00  0.00    -0.184 N 
ATOM      2  H   LIG    1        0.021   1.586   2.970  0.00  0.00    +0.177 HD
ENDROOT
BRANCH   1   3
ATOM      3  C   LIG    1       -0.862   0.550   1.309  0.00  0.00    +0.238 A 
ATOM      4  N   LIG    1       -1.858   1.446   1.195  0.00  0.00    -0.198 NA
ATOM      5  C   LIG    1       -2.813   1.336   0.262  0.00  0.00    +0.134 A 
ATOM      6  N   LIG    1       -2.767   0.287  -0.587  0.00  0.00    -0.217 NA
ATOM      7  C   LIG    1       -1.792  -0.627  -0.507  0.00  0.00    +0.134 A 
ATOM      8  N   LIG    1       -0.852  -0.476   0.448  0.00  0.00    -0.198 NA
BRANCH   5   9
ATOM      9  C   LIG    1       -3.889   2.363   0.189  0.00  0.00    +0.073 C 
ATOM     10  C   LIG    1       -3.435   3.467  -0.745  0.00  0.00    +0.012 C 
ENDBRANCH   5   9
BRANCH   7  11
ATOM     11  C   LIG    1       -1.673  -1.800  -1.397  0.00  0.00    +0.073 C 
ATOM     12  C   LIG    1       -2.398  -3.010  -0.870  0.00  0.00    +0.012 C 
ENDBRANCH   7  11
ENDBRANCH   1   3
BRANCH   1  13
ATOM     13  S   LIG    1        1.392  -0.362   2.516  0.00  0.00    +0.075 S 
ATOM     14  O   LIG    1        2.247   0.057   3.705  0.00  0.00    -0.150 OA
ATOM     15  O   LIG    1        0.841  -1.752   2.799  0.00  0.00    -0.150 OA
BRANCH  13  16
ATOM     16  C   LIG    1        2.391  -0.417   1.095  0.00  0.00    +0.109 A 
ATOM     17  C   LIG    1        3.409   0.484   0.941  0.00  0.00    +0.030 A 
ATOM     18  C   LIG    1        4.221   0.460  -0.174  0.00  0.00    +0.024 A 
ATOM     19  C   LIG    1        3.989  -0.490  -1.132  0.00  0.00    +0.025 A 
ATOM     20  C   LIG    1        2.978  -1.395  -0.993  0.00  0.00    +0.024 A 
ATOM     21  C   LIG    1        2.171  -1.362   0.128  0.00  0.00    +0.030 A 
BRANCH  19  22
ATOM     22  N   LIG    1        4.805  -0.542  -2.288  0.00  0.00    -0.358 N 
ATOM     23  H   LIG    1        5.192  -1.440  -2.634  0.00  0.00    +0.142 HD
ATOM     24  H   LIG    1        4.993   0.372  -2.771  0.00  0.00    +0.142 HD
ENDBRANCH  19  22
ENDBRANCH  13  16
ENDBRANCH   1  13
TORSDOF 6
