REMARK  Name = molecules/ZQPPMHVWECSIRJ-KTKRTIGZSA-N.pdb
REMARK                            x       y       z     vdW  Elec       q    Type
REMARK                         _______ _______ _______ _____ _____    ______ ____
ROOT
ATOM      1  C   LIG    1        0.999   1.171  -1.618  0.00  0.00    +0.027 C 
ENDROOT
BRANCH   1   2
ATOM      2  C   LIG    1       -0.330   0.683  -1.926  0.00  0.00    -0.031 C 
ATOM      3  C   LIG    1       -1.449   1.084  -1.329  0.00  0.00    -0.031 C 
BRANCH   3   4
ATOM      4  C   LIG    1       -1.401   2.096  -0.270  0.00  0.00    +0.027 C 
BRANCH   4   5
ATOM      5  C   LIG    1       -1.873   1.684   1.076  0.00  0.00    +0.004 C 
BRANCH   5   6
ATOM      6  C   LIG    1       -3.249   1.302   1.347  0.00  0.00    +0.000 C 
BRANCH   6   7
ATOM      7  C   LIG    1       -3.888   0.154   0.662  0.00  0.00    +0.000 C 
BRANCH   7   8
ATOM      8  C   LIG    1       -5.330  -0.046   1.231  0.00  0.00    -0.000 C 
BRANCH   8   9
ATOM      9  C   LIG    1       -5.944  -1.224   0.507  0.00  0.00    -0.000 C 
BRANCH   9  10
ATOM     10  C   LIG    1       -7.352  -1.386   1.092  0.00  0.00    -0.003 C 
ATOM     11  C   LIG    1       -7.965  -2.574   0.358  0.00  0.00    +0.004 C 
ENDBRANCH   9  10
ENDBRANCH   8   9
ENDBRANCH   7   8
ENDBRANCH   6   7
ENDBRANCH   5   6
ENDBRANCH   4   5
ENDBRANCH   3   4
ENDBRANCH   1   2
BRANCH   1  12
ATOM     12  C   LIG    1        1.934   0.048  -1.141  0.00  0.00    +0.004 C 
BRANCH  12  13
ATOM     13  C   LIG    1        3.263   0.695  -0.861  0.00  0.00    +0.000 C 
BRANCH  13  14
ATOM     14  C   LIG    1        4.289  -0.318  -0.376  0.00  0.00    +0.000 C 
BRANCH  14  15
ATOM     15  C   LIG    1        5.597   0.379  -0.111  0.00  0.00    +0.001 C 
BRANCH  15  16
ATOM     16  C   LIG    1        6.679  -0.542   0.381  0.00  0.00    +0.011 C 
BRANCH  16  17
ATOM     17  C   LIG    1        6.979  -1.629  -0.624  0.00  0.00    +0.120 C 
BRANCH  17  18
ATOM     18  C   LIG    1        8.072  -2.472  -0.023  0.00  0.00    +0.305 C 
ATOM     19  O   LIG    1        8.471  -3.445  -0.715  0.00  0.00    -0.251 OA
BRANCH  18  20
ATOM     20  O   LIG    1        8.618  -2.203   1.220  0.00  0.00    -0.481 OA
ATOM     21  H   LIG    1        9.258  -1.399   1.289  0.00  0.00    +0.295 HD
ENDBRANCH  18  20
ENDBRANCH  17  18
ENDBRANCH  16  17
ENDBRANCH  15  16
ENDBRANCH  14  15
ENDBRANCH  13  14
ENDBRANCH  12  13
ENDBRANCH   1  12
TORSDOF 16
