REMARK  Name = molecules/ZREIPSZUJIFJNP-UHFFFAOYSA-K.pdb
REMARK                            x       y       z     vdW  Elec       q    Type
REMARK                         _______ _______ _______ _____ _____    ______ ____
ROOT
ATOM      1  C   LIG    1       -1.174  -1.220   0.170  0.00  0.00    +0.000 A 
ATOM      2  C   LIG    1       -2.252  -0.480   0.588  0.00  0.00    +0.000 A 
ATOM      3  C   LIG    1       -2.245   0.889   0.509  0.00  0.00    +0.000 A 
ATOM      4  C   LIG    1       -1.111   1.465  -0.006  0.00  0.00    +0.000 A 
ATOM      5  C   LIG    1       -0.002   0.707  -0.437  0.00  0.00    +0.000 A 
ATOM      6  O   LIG    1        1.022   1.549  -0.920  0.00  0.00    +0.000 OA
ATOM      7 BI   LIG    1        2.959   0.600  -1.082  0.00  0.00    +0.000 Bi
ATOM      8  O   LIG    1        2.245  -1.425  -1.285  0.00  0.00    +0.000 OA
ATOM      9  C   LIG    1        0.985  -1.615  -0.733  0.00  0.00    +0.000 C 
ATOM     10  O   LIG    1        0.751  -2.884  -0.562  0.00  0.00    +0.000 OA
ATOM     11  C   LIG    1       -0.002  -0.640  -0.362  0.00  0.00    +0.000 A 
ENDROOT
BRANCH   7  12
ATOM     12  O   LIG    1        3.887   0.743   0.823  0.00  0.00    +0.000 OA
ATOM     13  H   LIG    1        3.571   1.566   1.253  0.00  0.00    +0.000 HD
ENDBRANCH   7  12
TORSDOF 1
