REMARK  Name = molecules/ZRIHAIZYIMGOAB-ZCFIWIBFSA-N.pdb
REMARK                            x       y       z     vdW  Elec       q    Type
REMARK                         _______ _______ _______ _____ _____    ______ ____
ROOT
ATOM      1  C   LIG    1        0.517   0.282  -0.076  0.00  0.00    +0.126 C 
ATOM      2  C   LIG    1        1.329   0.275   1.201  0.00  0.00    +0.236 C 
ATOM      3  N   LIG    1        1.739  -0.930   1.808  0.00  0.00    -0.239 N 
ATOM      4  H   LIG    1        2.063  -0.952   2.792  0.00  0.00    +0.159 HD
ATOM      5  C   LIG    1        1.718  -2.142   1.086  0.00  0.00    +0.312 C 
ATOM      6  O   LIG    1        2.077  -3.228   1.602  0.00  0.00    -0.252 OA
ATOM      7  N   LIG    1        1.280  -2.142  -0.259  0.00  0.00    -0.239 N 
ATOM      8  H   LIG    1        1.268  -3.062  -0.793  0.00  0.00    +0.159 HD
ATOM      9  O   LIG    1        1.638   1.368   1.725  0.00  0.00    -0.274 OA
ATOM     10  C   LIG    1        0.866  -0.931  -0.877  0.00  0.00    +0.236 C 
ATOM     11  O   LIG    1        0.809  -0.927  -2.128  0.00  0.00    -0.274 OA
ENDROOT
BRANCH   1  12
ATOM     12  C   LIG    1       -0.905   0.332   0.347  0.00  0.00    +0.010 C 
ATOM     13  C   LIG    1       -1.265  -0.731   1.380  0.00  0.00    +0.009 C 
BRANCH  12  14
ATOM     14  C   LIG    1       -1.922   0.403  -0.746  0.00  0.00    +0.001 C 
ATOM     15  C   LIG    1       -2.119  -0.863  -1.522  0.00  0.00    +0.004 C 
ENDBRANCH  12  14
ENDBRANCH   1  12
BRANCH   1  16
ATOM     16  C   LIG    1        0.976   1.453  -0.871  0.00  0.00    +0.022 C 
ATOM     17  C   LIG    1        0.888   2.786  -0.233  0.00  0.00    +0.005 C 
ENDBRANCH   1  16
TORSDOF 3
