REMARK  Name = molecules/ZRTQSJFIDWNVJW-MNWMYKRDSA-N.pdb
REMARK                            x       y       z     vdW  Elec       q    Type
REMARK                         _______ _______ _______ _____ _____    ______ ____
ROOT
ATOM      1  C   LIG    1        2.555   0.316  -1.091  0.00  0.00    +0.145 C 
ATOM      2  C   LIG    1        1.439   0.298  -0.407  0.00  0.00    +0.076 C 
ATOM      3  S   LIG    1        1.299  -0.239   1.285  0.00  0.00    -0.114 S 
ATOM      4  C   LIG    1       -0.497  -0.606   1.381  0.00  0.00    +0.094 C 
ATOM      5  C   LIG    1       -1.141   0.548   0.681  0.00  0.00    +0.093 C 
ATOM      6  S   LIG    1       -0.216   0.771  -0.886  0.00  0.00    -0.107 S 
ENDROOT
BRANCH   5   7
ATOM      7  C   LIG    1       -2.566   0.283   0.368  0.00  0.00    -0.015 A 
ATOM      8  C   LIG    1       -3.122  -0.916   0.758  0.00  0.00    +0.006 A 
ATOM      9  C   LIG    1       -4.462  -1.175   0.469  0.00  0.00    +0.000 A 
ATOM     10  C   LIG    1       -5.236  -0.252  -0.199  0.00  0.00    +0.001 A 
ATOM     11  C   LIG    1       -4.654   0.951  -0.583  0.00  0.00    +0.020 A 
ATOM     12  C   LIG    1       -3.331   1.219  -0.303  0.00  0.00    +0.045 A 
ATOM     13 CL   LIG    1       -2.587   2.733  -0.783  0.00  0.00    -0.083 Cl
ENDBRANCH   5   7
BRANCH   1  14
ATOM     14  N   LIG    1        3.748  -0.116  -0.470  0.00  0.00    -0.296 N 
ATOM     15  C   LIG    1        4.027  -1.294   0.101  0.00  0.00    +0.204 A 
ATOM     16  N   LIG    1        5.281  -1.320   0.585  0.00  0.00    -0.244 NA
ATOM     17  C   LIG    1        5.850  -0.129   0.328  0.00  0.00    +0.130 A 
ATOM     18  C   LIG    1        4.892   0.616  -0.329  0.00  0.00    +0.113 A 
ENDBRANCH   1  14
BRANCH   1  19
ATOM     19  C   LIG    1        2.558   0.768  -2.449  0.00  0.00    +0.119 C 
ATOM     20  N   LIG    1        2.539   1.136  -3.545  0.00  0.00    -0.189 NA
ENDBRANCH   1  19
TORSDOF 3
