REMARK  Name = molecules/ZSCDBOWYZJWBIY-MRXNPFEDSA-N.pdb
REMARK                            x       y       z     vdW  Elec       q    Type
REMARK                         _______ _______ _______ _____ _____    ______ ____
ROOT
ATOM      1  N   LIG    1       -0.831  -0.116   0.648  0.00  0.00    -0.299 N 
ATOM      2  C   LIG    1       -1.303   1.221   0.770  0.00  0.00    +0.037 A 
ATOM      3  C   LIG    1       -0.379   2.099   1.258  0.00  0.00    +0.024 A 
ATOM      4  C   LIG    1       -0.642   3.446   1.456  0.00  0.00    +0.002 A 
ATOM      5  C   LIG    1       -1.881   3.956   1.159  0.00  0.00    +0.000 A 
ATOM      6  C   LIG    1       -2.833   3.108   0.668  0.00  0.00    +0.005 A 
ATOM      7  C   LIG    1       -2.566   1.773   0.473  0.00  0.00    -0.026 A 
ATOM      8  C   LIG    1       -3.712   1.000  -0.065  0.00  0.00    +0.042 C 
ATOM      9  C   LIG    1       -3.275   0.433  -1.399  0.00  0.00    +0.042 C 
ATOM     10  C   LIG    1       -2.590  -0.852  -1.094  0.00  0.00    -0.026 A 
ATOM     11  C   LIG    1       -3.116  -1.902  -1.814  0.00  0.00    +0.005 A 
ATOM     12  C   LIG    1       -2.607  -3.167  -1.661  0.00  0.00    +0.000 A 
ATOM     13  C   LIG    1       -1.563  -3.391  -0.783  0.00  0.00    +0.002 A 
ATOM     14  C   LIG    1       -1.049  -2.326  -0.071  0.00  0.00    +0.024 A 
ATOM     15  C   LIG    1       -1.527  -1.047  -0.192  0.00  0.00    +0.037 A 
ENDROOT
BRANCH   1  16
ATOM     16  C   LIG    1        0.318  -0.481   1.359  0.00  0.00    +0.115 C 
BRANCH  16  17
ATOM     17  C   LIG    1        1.641  -0.750   0.869  0.00  0.00    +0.018 C 
ATOM     18  C   LIG    1        2.567  -0.968   2.111  0.00  0.00    +0.010 C 
BRANCH  17  19
ATOM     19  C   LIG    1        2.461   0.271   0.117  0.00  0.00    +0.088 C 
BRANCH  19  20
ATOM     20  N   LIG    1        3.752  -0.255  -0.281  0.00  0.00    -0.308 NA
ATOM     21  C   LIG    1        4.483   0.791  -0.975  0.00  0.00    +0.104 C 
ATOM     22  C   LIG    1        3.618  -1.444  -1.098  0.00  0.00    +0.104 C 
ENDBRANCH  19  20
ENDBRANCH  17  19
ENDBRANCH  16  17
ENDBRANCH   1  16
TORSDOF 4
