REMARK  Name = molecules/ZSDBFLMJVAGKOU-UHFFFAOYSA-N.pdb
REMARK                            x       y       z     vdW  Elec       q    Type
REMARK                         _______ _______ _______ _____ _____    ______ ____
ROOT
ATOM      1  C   LIG    1        0.424   0.156  -0.254  0.00  0.00    +0.251 C 
ENDROOT
BRANCH   1   2
ATOM      2  C   LIG    1        0.247  -1.186  -0.905  0.00  0.00    +0.280 C 
BRANCH   2   3
ATOM      3  O   LIG    1       -0.971  -1.809  -0.641  0.00  0.00    -0.461 OA
BRANCH   3   4
ATOM      4  C   LIG    1       -1.422  -2.162   0.621  0.00  0.00    +0.307 C 
ATOM      5  O   LIG    1       -0.680  -1.902   1.593  0.00  0.00    -0.251 OA
BRANCH   4   6
ATOM      6  C   LIG    1       -2.746  -2.824   0.767  0.00  0.00    +0.121 C 
BRANCH   6   7
ATOM      7  C   LIG    1       -3.401  -2.939  -0.576  0.00  0.00    +0.016 C 
BRANCH   7   8
ATOM      8  C   LIG    1       -4.745  -3.603  -0.521  0.00  0.00    +0.035 C 
BRANCH   8   9
ATOM      9  C   LIG    1       -5.630  -2.825   0.351  0.00  0.00    -0.047 A 
ATOM     10  C   LIG    1       -5.688  -3.121   1.690  0.00  0.00    +0.003 A 
ATOM     11  C   LIG    1       -6.520  -2.388   2.500  0.00  0.00    +0.000 A 
ATOM     12  C   LIG    1       -7.298  -1.364   1.996  0.00  0.00    +0.000 A 
ATOM     13  C   LIG    1       -7.225  -1.081   0.642  0.00  0.00    +0.000 A 
ATOM     14  C   LIG    1       -6.397  -1.808  -0.173  0.00  0.00    +0.003 A 
ENDBRANCH   8   9
ENDBRANCH   7   8
ENDBRANCH   6   7
ENDBRANCH   4   6
ENDBRANCH   3   4
ENDBRANCH   2   3
ENDBRANCH   1   2
BRANCH   1  15
ATOM     15  O   LIG    1       -0.523   1.096  -0.636  0.00  0.00    -0.454 OA
BRANCH  15  16
ATOM     16  C   LIG    1       -1.318   1.788   0.232  0.00  0.00    +0.308 C 
ATOM     17  O   LIG    1       -1.185   1.562   1.463  0.00  0.00    -0.251 OA
BRANCH  16  18
ATOM     18  C   LIG    1       -2.325   2.787  -0.197  0.00  0.00    +0.121 C 
BRANCH  18  19
ATOM     19  C   LIG    1       -1.714   4.162  -0.028  0.00  0.00    +0.016 C 
BRANCH  19  20
ATOM     20  C   LIG    1       -2.701   5.233  -0.454  0.00  0.00    +0.035 C 
BRANCH  20  21
ATOM     21  C   LIG    1       -2.040   6.548  -0.266  0.00  0.00    -0.047 A 
ATOM     22  C   LIG    1       -2.171   7.189   0.942  0.00  0.00    +0.003 A 
ATOM     23  C   LIG    1       -1.535   8.418   1.072  0.00  0.00    +0.000 A 
ATOM     24  C   LIG    1       -0.800   8.994   0.056  0.00  0.00    +0.000 A 
ATOM     25  C   LIG    1       -0.705   8.302  -1.135  0.00  0.00    +0.000 A 
ATOM     26  C   LIG    1       -1.317   7.071  -1.325  0.00  0.00    +0.003 A 
ENDBRANCH  20  21
ENDBRANCH  19  20
ENDBRANCH  18  19
ENDBRANCH  16  18
ENDBRANCH  15  16
ENDBRANCH   1  15
BRANCH   1  27
ATOM     27  C   LIG    1        1.825   0.626  -0.573  0.00  0.00    +0.280 C 
BRANCH  27  28
ATOM     28  O   LIG    1        2.800  -0.303  -0.212  0.00  0.00    -0.461 OA
BRANCH  28  29
ATOM     29  C   LIG    1        3.068  -0.800   1.030  0.00  0.00    +0.307 C 
ATOM     30  O   LIG    1        2.362  -0.383   1.986  0.00  0.00    -0.251 OA
BRANCH  29  31
ATOM     31  C   LIG    1        4.114  -1.789   1.364  0.00  0.00    +0.121 C 
BRANCH  31  32
ATOM     32  C   LIG    1        4.928  -2.215   0.173  0.00  0.00    +0.016 C 
BRANCH  32  33
ATOM     33  C   LIG    1        5.946  -3.228   0.692  0.00  0.00    +0.035 C 
BRANCH  33  34
ATOM     34  C   LIG    1        6.822  -3.733  -0.379  0.00  0.00    -0.047 A 
ATOM     35  C   LIG    1        8.007  -3.086  -0.669  0.00  0.00    +0.003 A 
ATOM     36  C   LIG    1        8.861  -3.527  -1.669  0.00  0.00    +0.000 A 
ATOM     37  C   LIG    1        8.553  -4.637  -2.414  0.00  0.00    +0.000 A 
ATOM     38  C   LIG    1        7.375  -5.297  -2.139  0.00  0.00    +0.000 A 
ATOM     39  C   LIG    1        6.517  -4.849  -1.131  0.00  0.00    +0.003 A 
ENDBRANCH  33  34
ENDBRANCH  32  33
ENDBRANCH  31  32
ENDBRANCH  29  31
ENDBRANCH  28  29
ENDBRANCH  27  28
ENDBRANCH   1  27
TORSDOF 20
