REMARK  Name = molecules/ZSJLQEPLLKMAKR-GKHCUFPYSA-N.pdb
REMARK                            x       y       z     vdW  Elec       q    Type
REMARK                         _______ _______ _______ _____ _____    ______ ____
ROOT
ATOM      1  C   LIG    1       -0.203   0.338   0.283  0.00  0.00    +0.161 C 
ATOM      2  C   LIG    1        0.491  -0.404   1.384  0.00  0.00    +0.270 C 
ATOM      3  O   LIG    1        1.746   0.186   1.547  0.00  0.00    -0.341 OA
ATOM      4  C   LIG    1        2.531  -0.203   0.487  0.00  0.00    +0.178 C 
ATOM      5  C   LIG    1        2.036   0.245  -0.851  0.00  0.00    +0.176 C 
ATOM      6  C   LIG    1        0.553   0.198  -1.011  0.00  0.00    +0.171 C 
ENDROOT
BRANCH   1   7
ATOM      7  N   LIG    1       -1.569  -0.154   0.108  0.00  0.00    -0.288 N 
ATOM      8  C   LIG    1       -2.667   0.718   0.275  0.00  0.00    +0.319 C 
ATOM      9  O   LIG    1       -2.479   1.930   0.577  0.00  0.00    -0.251 OA
ATOM     10  N   LIG    1       -4.001   0.280   0.114  0.00  0.00    -0.179 N 
ATOM     11  C   LIG    1       -4.261  -1.096  -0.230  0.00  0.00    +0.158 C 
ATOM     12  H   LIG    1       -1.766  -1.147  -0.141  0.00  0.00    +0.151 HD
BRANCH  10  13
ATOM     13  N   LIG    1       -5.083   1.132   0.277  0.00  0.00    +0.053 NA
ATOM     14  O   LIG    1       -5.115   2.308  -0.158  0.00  0.00    -0.079 OA
ENDBRANCH  10  13
ENDBRANCH   1   7
BRANCH   5  15
ATOM     15  O   LIG    1        2.602  -0.586  -1.818  0.00  0.00    -0.387 OA
ATOM     16  H   LIG    1        2.523  -1.540  -1.534  0.00  0.00    +0.210 HD
ENDBRANCH   5  15
BRANCH   2  17
ATOM     17  O   LIG    1        0.717  -1.736   1.040  0.00  0.00    -0.365 OA
ATOM     18  H   LIG    1        0.169  -2.001   0.251  0.00  0.00    +0.213 HD
ENDBRANCH   2  17
BRANCH   6  19
ATOM     19  O   LIG    1        0.139   1.235  -1.855  0.00  0.00    -0.387 OA
ATOM     20  H   LIG    1        0.114   2.066  -1.323  0.00  0.00    +0.210 HD
ENDBRANCH   6  19
BRANCH   4  21
ATOM     21  C   LIG    1        3.925   0.368   0.724  0.00  0.00    +0.190 C 
BRANCH  21  22
ATOM     22  O   LIG    1        4.808   0.042  -0.280  0.00  0.00    -0.392 OA
ATOM     23  H   LIG    1        4.720   0.586  -1.098  0.00  0.00    +0.210 HD
ENDBRANCH  21  22
ENDBRANCH   4  21
TORSDOF 7
