REMARK  Name = molecules/ZSKVGTPCRGIANV-ZXFLCMHBSA-N.pdb
REMARK                            x       y       z     vdW  Elec       q    Type
REMARK                         _______ _______ _______ _____ _____    ______ ____
ROOT
ATOM      1  C   LIG    1       -0.130  -1.409  -0.550  0.00  0.00    +0.131 C 
ATOM      2  C   LIG    1        0.396  -0.953   0.571  0.00  0.00    +0.016 C 
ATOM      3  C   LIG    1       -0.811  -0.573   1.462  0.00  0.00    +0.068 C 
ATOM      4  C   LIG    1       -1.735  -0.091   0.389  0.00  0.00    +0.101 C 
ATOM      5  C   LIG    1       -3.167  -0.536   0.447  0.00  0.00    +0.125 C 
ATOM      6  C   LIG    1       -2.929  -1.464  -0.721  0.00  0.00    +0.228 C 
ATOM      7  O   LIG    1       -3.707  -2.100  -1.493  0.00  0.00    -0.275 OA
ATOM      8  N   LIG    1       -1.564  -1.260  -0.503  0.00  0.00    -0.260 N 
ENDROOT
BRANCH   1   9
ATOM      9  C   LIG    1        0.573  -1.982  -1.693  0.00  0.00    +0.352 C 
ATOM     10  O   LIG    1        1.778  -2.163  -1.840  0.00  0.00    -0.244 OA
BRANCH   9  11
ATOM     11  O   LIG    1       -0.219  -2.391  -2.791  0.00  0.00    -0.476 OA
ATOM     12  H   LIG    1       -0.023  -3.322  -3.139  0.00  0.00    +0.295 HD
ENDBRANCH   9  11
ENDBRANCH   1   9
BRANCH   5  13
ATOM     13  C   LIG    1       -4.071   0.579  -0.050  0.00  0.00    +0.125 C 
ATOM     14  C   LIG    1       -3.927   1.832   0.788  0.00  0.00    +0.038 C 
BRANCH  13  15
ATOM     15  O   LIG    1       -3.662   0.909  -1.346  0.00  0.00    -0.391 OA
ATOM     16  H   LIG    1       -2.988   1.631  -1.282  0.00  0.00    +0.210 HD
ENDBRANCH  13  15
ENDBRANCH   5  13
BRANCH   2  17
ATOM     17  S   LIG    1        2.006  -0.810   1.183  0.00  0.00    -0.126 S 
BRANCH  17  18
ATOM     18  C   LIG    1        3.409  -0.877   0.162  0.00  0.00    +0.093 C 
BRANCH  18  19
ATOM     19  C   LIG    1        3.554   0.292  -0.806  0.00  0.00    +0.113 C 
BRANCH  19  20
ATOM     20  N   LIG    1        3.650   1.538  -0.058  0.00  0.00    -0.335 N 
ATOM     21  H   LIG    1        2.868   2.206  -0.132  0.00  0.00    +0.147 HD
BRANCH  20  22
ATOM     22  C   LIG    1        4.802   1.762   0.724  0.00  0.00    +0.171 C 
ATOM     23  N   LIG    1        4.679   2.067   1.958  0.00  0.00    -0.293 NA
ATOM     24  H   LIG    1        3.814   2.178   2.492  0.00  0.00    +0.187 HD
ENDBRANCH  20  22
ENDBRANCH  19  20
ENDBRANCH  18  19
ENDBRANCH  17  18
ENDBRANCH   2  17
TORSDOF 9
