REMARK  Name = molecules/ZTTKEBYSXUCBSE-QDFUAKMASA-N.pdb
REMARK                            x       y       z     vdW  Elec       q    Type
REMARK                         _______ _______ _______ _____ _____    ______ ____
ROOT
ATOM      1  C   LIG    1       -2.289  -0.463  -0.813  0.00  0.00    +0.072 C 
ATOM      2  C   LIG    1       -2.632  -1.844  -1.050  0.00  0.00    +0.037 C 
ATOM      3  C   LIG    1       -1.699  -2.803  -1.607  0.00  0.00    -0.031 A 
ATOM      4  C   LIG    1       -0.312  -2.854  -1.518  0.00  0.00    +0.002 A 
ATOM      5  C   LIG    1        0.463  -1.899  -0.734  0.00  0.00    +0.054 A 
ATOM      6  C   LIG    1        1.621  -2.230  -0.095  0.00  0.00    -0.011 A 
ATOM      7  C   LIG    1        2.067  -0.984   0.398  0.00  0.00    +0.004 A 
ATOM      8  C   LIG    1        3.180  -0.673   1.136  0.00  0.00    +0.011 A 
ATOM      9  C   LIG    1        3.444   0.637   1.548  0.00  0.00    +0.014 A 
ATOM     10  C   LIG    1        2.564   1.628   1.201  0.00  0.00    +0.040 A 
ATOM     11  C   LIG    1        1.426   1.316   0.448  0.00  0.00    +0.039 A 
ATOM     12  C   LIG    1        1.161   0.029   0.041  0.00  0.00    +0.051 A 
ATOM     13  N   LIG    1        0.198  -0.569  -0.644  0.00  0.00    -0.339 N 
ATOM     14  C   LIG    1        0.513  -3.758  -2.124  0.00  0.00    +0.014 A 
ATOM     15  C   LIG    1       -0.119  -4.718  -2.899  0.00  0.00    +0.046 A 
ATOM     16  C   LIG    1       -1.513  -4.736  -3.037  0.00  0.00    +0.120 A 
ATOM     17  C   LIG    1       -2.286  -3.778  -2.390  0.00  0.00    +0.050 A 
ATOM     18  C   LIG    1       -0.968   0.096  -1.164  0.00  0.00    +0.139 C 
ATOM     19  C   LIG    1       -3.184  -0.845  -1.998  0.00  0.00    +0.027 C 
ENDROOT
BRANCH   1  20
ATOM     20  C   LIG    1       -3.003   0.198   0.316  0.00  0.00    +0.225 C 
ATOM     21  O   LIG    1       -3.276  -0.546   1.320  0.00  0.00    -0.275 OA
ATOM     22  N   LIG    1       -3.369   1.534   0.327  0.00  0.00    -0.292 N 
ATOM     23  C   LIG    1       -4.036   2.230   1.446  0.00  0.00    +0.090 C 
ATOM     24  C   LIG    1       -3.120   3.429   1.602  0.00  0.00    +0.025 C 
ATOM     25  C   LIG    1       -2.598   3.665   0.180  0.00  0.00    +0.025 C 
ATOM     26  C   LIG    1       -5.442   2.606   1.085  0.00  0.00    +0.106 C 
ATOM     27  N   LIG    1       -5.575   3.271  -0.155  0.00  0.00    -0.302 NA
ATOM     28  C   LIG    1       -6.233   4.547  -0.133  0.00  0.00    +0.105 C 
ATOM     29  C   LIG    1       -4.568   3.127  -1.120  0.00  0.00    +0.106 C 
ATOM     30  C   LIG    1       -3.245   2.558  -0.655  0.00  0.00    +0.090 C 
ENDBRANCH   1  20
BRANCH   6  31
ATOM     31  C   LIG    1        2.106  -3.592   0.181  0.00  0.00    +0.022 C 
ATOM     32  C   LIG    1        1.167  -4.721   0.438  0.00  0.00    +0.008 C 
ATOM     33  C   LIG    1        1.596  -5.439   1.752  0.00  0.00    +0.001 C 
ATOM     34  C   LIG    1        3.003  -5.927   1.474  0.00  0.00    +0.000 C 
ATOM     35  C   LIG    1        3.958  -4.755   1.313  0.00  0.00    +0.001 C 
ATOM     36  C   LIG    1        3.547  -3.892   0.139  0.00  0.00    +0.008 C 
ENDBRANCH   6  31
BRANCH  10  37
ATOM     37  C   LIG    1        2.758   3.018   1.585  0.00  0.00    +0.264 C 
ATOM     38  N   LIG    1        4.017   3.490   1.973  0.00  0.00    -0.171 N 
ATOM     39  H   LIG    1        4.835   2.853   1.989  0.00  0.00    +0.178 HD
ATOM     40  O   LIG    1        1.754   3.813   1.566  0.00  0.00    -0.269 OA
BRANCH  38  41
ATOM     41  S   LIG    1        4.253   5.149   2.435  0.00  0.00    +0.114 S 
ATOM     42  O   LIG    1        4.631   5.224   3.885  0.00  0.00    -0.138 OA
ATOM     43  O   LIG    1        2.935   5.852   2.233  0.00  0.00    -0.138 OA
BRANCH  41  44
ATOM     44  N   LIG    1        5.488   5.852   1.497  0.00  0.00    -0.170 NA
ATOM     45  C   LIG    1        6.584   4.978   1.224  0.00  0.00    +0.132 C 
ATOM     46  C   LIG    1        4.917   6.435   0.301  0.00  0.00    +0.132 C 
ENDBRANCH  41  44
ENDBRANCH  38  41
ENDBRANCH  10  37
BRANCH  16  47
ATOM     47  O   LIG    1       -2.098  -5.720  -3.825  0.00  0.00    -0.495 OA
ATOM     48  C   LIG    1       -3.509  -5.705  -3.942  0.00  0.00    +0.277 C 
ENDBRANCH  16  47
TORSDOF 6
