REMARK  Name = molecules/ZTVIKZXZYLEVOL-CBBWQLFWSA-N.pdb
REMARK                            x       y       z     vdW  Elec       q    Type
REMARK                         _______ _______ _______ _____ _____    ______ ____
ROOT
ATOM      1  C   LIG    1        1.009   1.627   0.426  0.00  0.00    +0.341 C 
ATOM      2  O   LIG    1        0.579   2.682  -0.103  0.00  0.00    -0.248 OA
ENDROOT
BRANCH   1   3
ATOM      3  O   LIG    1        0.128   0.548   0.411  0.00  0.00    -0.459 OA
BRANCH   3   4
ATOM      4  C   LIG    1       -1.179   0.654  -0.175  0.00  0.00    +0.179 C 
ATOM      5  C   LIG    1       -2.164   0.474   0.924  0.00  0.00    +0.063 C 
ATOM      6  C   LIG    1       -3.200  -0.588   0.659  0.00  0.00    +0.060 C 
ATOM      7  C   LIG    1       -2.563  -1.974   0.572  0.00  0.00    +0.020 C 
ATOM      8  C   LIG    1       -2.541  -2.322  -0.904  0.00  0.00    +0.020 C 
ATOM      9  C   LIG    1       -2.655  -0.906  -1.496  0.00  0.00    +0.060 C 
ATOM     10  N   LIG    1       -3.695  -0.384  -0.663  0.00  0.00    -0.299 NA
ATOM     11  C   LIG    1       -4.149   0.913  -0.972  0.00  0.00    +0.105 C 
ATOM     12  C   LIG    1       -1.323  -0.264  -1.327  0.00  0.00    +0.063 C 
ENDBRANCH   3   4
ENDBRANCH   1   3
BRANCH   1  13
ATOM     13  C   LIG    1        2.354   1.577   1.010  0.00  0.00    +0.253 C 
BRANCH  13  14
ATOM     14  C   LIG    1        3.289   0.640   0.370  0.00  0.00    -0.008 A 
ATOM     15  C   LIG    1        4.628   0.771   0.638  0.00  0.00    +0.007 A 
ATOM     16  C   LIG    1        5.578  -0.066   0.080  0.00  0.00    +0.000 A 
ATOM     17  C   LIG    1        5.191  -1.074  -0.778  0.00  0.00    +0.000 A 
ATOM     18  C   LIG    1        3.843  -1.202  -1.043  0.00  0.00    +0.000 A 
ATOM     19  C   LIG    1        2.891  -0.359  -0.480  0.00  0.00    +0.007 A 
ENDBRANCH  13  14
BRANCH  13  20
ATOM     20  O   LIG    1        2.930   2.861   0.862  0.00  0.00    -0.376 OA
ATOM     21  H   LIG    1        2.732   3.171  -0.055  0.00  0.00    +0.211 HD
ENDBRANCH  13  20
ENDBRANCH   1  13
TORSDOF 5
