REMARK  Name = molecules/ZTVQQQVZCWLTDF-UHFFFAOYSA-N.pdb
REMARK                            x       y       z     vdW  Elec       q    Type
REMARK                         _______ _______ _______ _____ _____    ______ ____
ROOT
ATOM      1  C   LIG    1       -0.591   0.138  -0.626  0.00  0.00    +0.141 C 
ATOM      2  C   LIG    1       -0.005   1.070   0.418  0.00  0.00    +0.053 C 
ATOM      3  C   LIG    1        1.396   1.463   0.181  0.00  0.00    +0.087 C 
ATOM      4  N   LIG    1        2.203   0.614  -0.578  0.00  0.00    -0.302 NA
ATOM      5  C   LIG    1        1.635  -0.250  -1.531  0.00  0.00    +0.087 C 
ATOM      6  C   LIG    1        0.407  -0.904  -0.970  0.00  0.00    +0.053 C 
ENDROOT
BRANCH   1   7
ATOM      7  N   LIG    1       -1.811  -0.479  -0.068  0.00  0.00    -0.255 N 
ATOM      8  C   LIG    1       -2.591  -1.409  -0.758  0.00  0.00    +0.220 C 
ATOM      9  O   LIG    1       -2.267  -1.767  -1.911  0.00  0.00    -0.275 OA
BRANCH   7  14
ATOM     10  C   LIG    1       -3.331   1.583   2.577  0.00  0.00    +0.002 A 
ATOM     11  C   LIG    1       -3.034   0.841   3.697  0.00  0.00    +0.000 A 
ATOM     12  C   LIG    1       -2.341  -0.330   3.599  0.00  0.00    +0.002 A 
ATOM     13  C   LIG    1       -1.923  -0.793   2.374  0.00  0.00    +0.023 A 
ATOM     14  C   LIG    1       -2.195  -0.091   1.237  0.00  0.00    +0.037 A 
ATOM     15  C   LIG    1       -2.908   1.109   1.358  0.00  0.00    +0.023 A 
ENDBRANCH   7  14
BRANCH   8  16
ATOM     16  C   LIG    1       -3.812  -1.997  -0.155  0.00  0.00    +0.093 C 
ATOM     17  C   LIG    1       -5.079  -1.313  -0.558  0.00  0.00    +0.013 C 
ENDBRANCH   8  16
ENDBRANCH   1   7
BRANCH   1  18
ATOM     18  C   LIG    1       -0.983   0.897  -1.830  0.00  0.00    +0.331 C 
ATOM     19  O   LIG    1       -0.231   1.635  -2.506  0.00  0.00    -0.248 OA
BRANCH  18  20
ATOM     20  O   LIG    1       -2.319   0.790  -2.266  0.00  0.00    -0.466 OA
ATOM     21  C   LIG    1       -2.779   1.490  -3.419  0.00  0.00    +0.280 C 
ENDBRANCH  18  20
ENDBRANCH   1  18
BRANCH   4  22
ATOM     22  C   LIG    1        3.443   0.192   0.013  0.00  0.00    +0.095 C 
BRANCH  22  23
ATOM     23  C   LIG    1        4.530   0.231  -1.030  0.00  0.00    +0.136 C 
BRANCH  23  24
ATOM     24  C   LIG    1        5.815  -0.213  -0.379  0.00  0.00    +0.308 C 
ATOM     25  O   LIG    1        6.854  -0.254  -1.072  0.00  0.00    -0.251 OA
BRANCH  24  26
ATOM     26  O   LIG    1        5.851  -0.565   0.945  0.00  0.00    -0.468 OA
ATOM     27  C   LIG    1        7.086  -0.973   1.498  0.00  0.00    +0.280 C 
ENDBRANCH  24  26
ENDBRANCH  23  24
ENDBRANCH  22  23
ENDBRANCH   4  22
TORSDOF 9
