REMARK  Name = molecules/ZULJGOSFKWFVRX-UHFFFAOYSA-N.pdb
REMARK                            x       y       z     vdW  Elec       q    Type
REMARK                         _______ _______ _______ _____ _____    ______ ____
ROOT
ATOM      1  C   LIG    1        1.845   0.661   0.751  0.00  0.00    +0.230 C 
ATOM      2  N   LIG    1        0.897   1.364   1.533  0.00  0.00    -0.313 N 
ATOM      3  H   LIG    1        1.182   1.698   2.473  0.00  0.00    +0.149 HD
ATOM      4  O   LIG    1        1.530   0.256  -0.398  0.00  0.00    -0.274 OA
ENDROOT
BRANCH   1   5
ATOM      5  C   LIG    1        3.204   0.407   1.300  0.00  0.00    +0.203 C 
BRANCH   5   6
ATOM      6  N   LIG    1        4.025  -0.327   0.348  0.00  0.00    -0.293 N 
ATOM      7  C   LIG    1        4.107  -1.759   0.249  0.00  0.00    +0.216 C 
ATOM      8  O   LIG    1        3.347  -2.611   0.747  0.00  0.00    -0.276 OA
ATOM      9  C   LIG    1        5.309  -2.063  -0.588  0.00  0.00    +0.097 C 
ATOM     10  C   LIG    1        5.393  -0.870  -1.475  0.00  0.00    +0.028 C 
ATOM     11  C   LIG    1        4.895   0.271  -0.641  0.00  0.00    +0.109 C 
ENDBRANCH   5   6
ENDBRANCH   1   5
BRANCH   2  12
ATOM     12  C   LIG    1       -0.466   1.638   1.060  0.00  0.00    +0.119 C 
BRANCH  12  13
ATOM     13  C   LIG    1       -1.192   0.384   0.791  0.00  0.00    +0.103 C 
BRANCH  13  14
ATOM     14  N   LIG    1       -2.568   0.540   0.327  0.00  0.00    -0.296 NA
BRANCH  14  15
ATOM     15  C   LIG    1       -3.183  -0.778   0.411  0.00  0.00    +0.051 C 
ATOM     16  C   LIG    1       -3.139  -1.290   1.853  0.00  0.00    +0.024 C 
ATOM     17  C   LIG    1       -4.644  -0.652   0.086  0.00  0.00    +0.024 C 
ENDBRANCH  14  15
BRANCH  14  18
ATOM     18  C   LIG    1       -2.605   1.105  -0.993  0.00  0.00    +0.051 C 
ATOM     19  C   LIG    1       -3.864   1.802  -1.348  0.00  0.00    +0.024 C 
ATOM     20  C   LIG    1       -2.222   0.156  -2.088  0.00  0.00    +0.024 C 
ENDBRANCH  14  18
ENDBRANCH  13  14
ENDBRANCH  12  13
ENDBRANCH   2  12
TORSDOF 7
