REMARK  Name = molecules/ZVYVPGLRVWUPMP-FYSMJZIKSA-N.pdb
REMARK                            x       y       z     vdW  Elec       q    Type
REMARK                         _______ _______ _______ _____ _____    ______ ____
ROOT
ATOM      1  C   LIG    1        3.441  -1.784  -0.252  0.00  0.00    +0.082 C 
ATOM      2  C   LIG    1        4.653  -1.642   0.679  0.00  0.00    +0.028 C 
ATOM      3  C   LIG    1        5.236  -0.296   0.426  0.00  0.00    +0.038 C 
ATOM      4  C   LIG    1        4.258   0.756   0.721  0.00  0.00    -0.032 A 
ATOM      5  C   LIG    1        4.745   1.978   1.202  0.00  0.00    -0.011 A 
ATOM      6  C   LIG    1        3.806   2.949   1.464  0.00  0.00    +0.129 A 
ATOM      7  F   LIG    1        4.275   4.141   1.932  0.00  0.00    -0.205 F 
ATOM      8  C   LIG    1        2.460   2.730   1.264  0.00  0.00    +0.067 A 
ATOM      9  C   LIG    1        1.984   1.510   0.785  0.00  0.00    +0.075 A 
ATOM     10  N   LIG    1        0.654   1.333   0.602  0.00  0.00    -0.245 NA
ATOM     11  C   LIG    1        0.207   0.164   0.145  0.00  0.00    +0.093 A 
ATOM     12  C   LIG    1       -1.150  -0.265  -0.131  0.00  0.00    +0.071 A 
ATOM     13  C   LIG    1       -2.393   0.338  -0.028  0.00  0.00    +0.035 A 
ATOM     14  C   LIG    1       -3.546  -0.329  -0.370  0.00  0.00    +0.008 A 
ATOM     15  C   LIG    1       -4.884   0.255  -0.283  0.00  0.00    +0.188 C 
ATOM     16  C   LIG    1       -5.625  -0.137  -1.506  0.00  0.00    +0.344 C 
ATOM     17  O   LIG    1       -5.525  -1.460  -1.915  0.00  0.00    -0.457 OA
ATOM     18  C   LIG    1       -4.690  -2.383  -1.207  0.00  0.00    +0.273 C 
ATOM     19  O   LIG    1       -6.295   0.742  -2.099  0.00  0.00    -0.247 OA
ATOM     20  C   LIG    1       -3.443  -1.626  -0.824  0.00  0.00    +0.061 A 
ATOM     21  C   LIG    1       -2.204  -2.209  -0.920  0.00  0.00    +0.259 A 
ATOM     22  O   LIG    1       -2.138  -3.406  -1.341  0.00  0.00    -0.267 OA
ATOM     23  N   LIG    1       -1.083  -1.528  -0.575  0.00  0.00    -0.302 N 
ATOM     24  C   LIG    1        0.313  -1.989  -0.614  0.00  0.00    +0.163 C 
ATOM     25  C   LIG    1        1.099  -0.839  -0.132  0.00  0.00    +0.005 A 
ATOM     26  C   LIG    1        6.199   2.164   1.399  0.00  0.00    +0.047 C 
ATOM     27  C   LIG    1        2.914   0.526   0.518  0.00  0.00    +0.009 A 
ATOM     28  C   LIG    1        2.459  -0.698   0.041  0.00  0.00    -0.014 A 
ENDROOT
BRANCH   1  29
ATOM     29  N   LIG    1        3.870  -1.793  -1.619  0.00  0.00    -0.324 NA
ATOM     30  H   LIG    1        4.851  -2.183  -1.652  0.00  0.00    +0.119 HD
ATOM     31  H   LIG    1        3.279  -2.504  -2.144  0.00  0.00    +0.119 HD
ENDBRANCH   1  29
BRANCH  15  32
ATOM     32  O   LIG    1       -5.539  -0.330   0.809  0.00  0.00    -0.373 OA
ATOM     33  H   LIG    1       -6.473  -0.513   0.554  0.00  0.00    +0.211 HD
ENDBRANCH  15  32
BRANCH  15  34
ATOM     34  C   LIG    1       -4.891   1.738  -0.055  0.00  0.00    +0.048 C 
ATOM     35  C   LIG    1       -6.332   2.195   0.013  0.00  0.00    +0.007 C 
ENDBRANCH  15  34
TORSDOF 3
