REMARK  Name = molecules/ZWGPHQZXAPWKOV-UHFFFAOYSA-N.pdb
REMARK                            x       y       z     vdW  Elec       q    Type
REMARK                         _______ _______ _______ _____ _____    ______ ____
ROOT
ATOM      1  C   LIG    1       -0.309   0.731  -0.319  0.00  0.00    +0.126 C 
ATOM      2  C   LIG    1       -0.011   1.224   1.079  0.00  0.00    +0.236 C 
ATOM      3  O   LIG    1        0.278   0.375   1.933  0.00  0.00    -0.274 OA
ATOM      4  N   LIG    1       -0.059   2.596   1.407  0.00  0.00    -0.239 N 
ATOM      5  H   LIG    1       -0.129   2.916   2.428  0.00  0.00    +0.159 HD
ATOM      6  C   LIG    1       -0.013   3.555   0.362  0.00  0.00    +0.312 C 
ATOM      7  O   LIG    1       -0.057   4.792   0.686  0.00  0.00    -0.252 OA
ATOM      8  N   LIG    1        0.079   3.172  -0.998  0.00  0.00    -0.239 N 
ATOM      9  H   LIG    1        0.113   3.874  -1.758  0.00  0.00    +0.159 HD
ATOM     10  C   LIG    1        0.124   1.805  -1.301  0.00  0.00    +0.236 C 
ATOM     11  O   LIG    1        0.531   1.393  -2.416  0.00  0.00    -0.274 OA
ENDROOT
BRANCH   1  12
ATOM     12  C   LIG    1        0.584  -0.417  -0.557  0.00  0.00    +0.066 C 
BRANCH  12  13
ATOM     13  C   LIG    1        2.058   0.032  -0.350  0.00  0.00    +0.235 C 
BRANCH  13  14
ATOM     14  O   LIG    1        2.801  -1.169  -0.612  0.00  0.00    -0.450 OA
BRANCH  14  15
ATOM     15  C   LIG    1        4.179  -1.203  -0.535  0.00  0.00    +0.398 C 
ATOM     16  O   LIG    1        4.786  -0.160  -0.231  0.00  0.00    -0.227 OA
ATOM     17  N   LIG    1        4.827  -2.438  -0.812  0.00  0.00    -0.295 N 
ATOM     18  H   LIG    1        5.564  -2.857  -0.228  0.00  0.00    +0.148 HD
ATOM     19  H   LIG    1        4.554  -2.993  -1.675  0.00  0.00    +0.148 HD
ENDBRANCH  14  15
ENDBRANCH  13  14
ENDBRANCH  12  13
ENDBRANCH   1  12
BRANCH   1  20
ATOM     20  C   LIG    1       -1.754   0.603  -0.467  0.00  0.00    +0.025 C 
BRANCH  20  21
ATOM     21  C   LIG    1       -2.591  -0.294   0.314  0.00  0.00    +0.001 C 
BRANCH  21  22
ATOM     22  C   LIG    1       -2.359  -1.774   0.244  0.00  0.00    -0.003 C 
ATOM     23  C   LIG    1       -3.422  -2.499   1.123  0.00  0.00    +0.004 C 
ENDBRANCH  21  22
ENDBRANCH  20  21
ENDBRANCH   1  20
TORSDOF 7
