REMARK  Name = molecules/ZWPODSUQWXAZNC-PMOLBWCYSA-N.pdb
REMARK                            x       y       z     vdW  Elec       q    Type
REMARK                         _______ _______ _______ _____ _____    ______ ____
ROOT
ATOM      1  C   LIG    1       -2.928   1.748  -0.567  0.00  0.00    -0.041 A 
ATOM      2  C   LIG    1       -3.757   1.962   0.673  0.00  0.00    +0.040 C 
ATOM      3  C   LIG    1       -3.518   1.040   1.788  0.00  0.00    +0.040 C 
ATOM      4  C   LIG    1       -3.120  -0.336   1.472  0.00  0.00    -0.041 A 
ATOM      5  C   LIG    1       -3.989  -1.266   1.994  0.00  0.00    +0.004 A 
ATOM      6  C   LIG    1       -3.737  -2.594   1.786  0.00  0.00    +0.000 A 
ATOM      7  C   LIG    1       -2.618  -3.007   1.056  0.00  0.00    +0.000 A 
ATOM      8  C   LIG    1       -1.756  -2.026   0.539  0.00  0.00    +0.007 A 
ATOM      9  C   LIG    1       -2.010  -0.704   0.748  0.00  0.00    -0.011 A 
ATOM     10  C   LIG    1       -1.023   0.218   0.135  0.00  0.00    +0.179 C 
ATOM     11  C   LIG    1       -1.793   1.041  -0.823  0.00  0.00    -0.011 A 
ATOM     12  C   LIG    1       -1.229   1.010  -2.057  0.00  0.00    +0.007 A 
ATOM     13  C   LIG    1       -1.762   1.695  -3.148  0.00  0.00    +0.000 A 
ATOM     14  C   LIG    1       -2.914   2.405  -2.863  0.00  0.00    +0.000 A 
ATOM     15  C   LIG    1       -3.508   2.458  -1.635  0.00  0.00    +0.004 A 
ENDROOT
BRANCH  10  16
ATOM     16  O   LIG    1        0.028  -0.413  -0.485  0.00  0.00    -0.364 OA
BRANCH  16  17
ATOM     17  C   LIG    1        1.224  -0.045   0.131  0.00  0.00    +0.122 C 
ATOM     18  C   LIG    1        1.799  -1.276   0.761  0.00  0.00    +0.050 C 
ATOM     19  C   LIG    1        3.332  -1.298   0.693  0.00  0.00    +0.059 C 
ATOM     20  N   LIG    1        3.721   0.083   0.907  0.00  0.00    -0.299 NA
ATOM     21  C   LIG    1        5.056   0.162   1.424  0.00  0.00    +0.105 C 
ATOM     22  C   LIG    1        3.582   0.642  -0.414  0.00  0.00    +0.059 C 
ATOM     23  C   LIG    1        4.293  -0.388  -1.266  0.00  0.00    +0.020 C 
ATOM     24  C   LIG    1        3.797  -1.679  -0.678  0.00  0.00    +0.020 C 
ATOM     25  C   LIG    1        2.135   0.658  -0.812  0.00  0.00    +0.050 C 
ENDBRANCH  16  17
ENDBRANCH  10  16
TORSDOF 2
