REMARK  Name = molecules/ZXERDUOLZKYMJM-ZWECCWDJSA-N.pdb
REMARK                            x       y       z     vdW  Elec       q    Type
REMARK                         _______ _______ _______ _____ _____    ______ ____
ROOT
ATOM      1  C   LIG    1        3.226   1.839  -1.063  0.00  0.00    +0.010 C 
ATOM      2  C   LIG    1        2.580   0.473  -0.884  0.00  0.00    -0.026 C 
ATOM      3  C   LIG    1        3.479  -0.407  -0.085  0.00  0.00    +0.003 C 
ATOM      4  C   LIG    1        2.831  -1.307   0.871  0.00  0.00    +0.021 C 
ATOM      5  C   LIG    1        1.611  -0.657   1.573  0.00  0.00    +0.122 C 
ATOM      6  C   LIG    1        0.647  -0.433   0.466  0.00  0.00    +0.025 C 
ATOM      7  C   LIG    1       -0.697   0.031   0.842  0.00  0.00    +0.001 C 
ATOM      8  C   LIG    1       -1.433  -0.672   1.890  0.00  0.00    +0.005 C 
ATOM      9  C   LIG    1       -2.878  -0.306   1.585  0.00  0.00    +0.004 C 
ATOM     10  C   LIG    1       -2.889   0.178   0.126  0.00  0.00    -0.002 C 
ATOM     11  C   LIG    1       -1.569  -0.226  -0.400  0.00  0.00    -0.026 C 
ATOM     12  C   LIG    1       -1.469  -1.705  -0.739  0.00  0.00    +0.012 C 
ATOM     13  C   LIG    1       -1.010   0.587  -1.503  0.00  0.00    +0.007 C 
ATOM     14  C   LIG    1        0.257   1.298  -1.288  0.00  0.00    +0.005 C 
ATOM     15  C   LIG    1        4.679   0.378   0.380  0.00  0.00    +0.035 C 
ATOM     16  C   LIG    1        5.401   0.799  -0.928  0.00  0.00    +0.115 C 
ATOM     17  C   LIG    1        1.231   0.752  -0.320  0.00  0.00    +0.001 C 
ATOM     18  C   LIG    1        2.369  -0.065  -2.304  0.00  0.00    +0.012 C 
ATOM     19  C   LIG    1        4.576   1.774  -1.699  0.00  0.00    +0.032 C 
ENDROOT
BRANCH   4  20
ATOM     20  C   LIG    1        3.609  -1.969   1.928  0.00  0.00    +0.003 C 
ATOM     21  C   LIG    1        4.296  -1.110   2.935  0.00  0.00    +0.004 C 
ENDBRANCH   4  20
BRANCH   5  22
ATOM     22  O   LIG    1        1.988   0.556   2.151  0.00  0.00    -0.391 OA
ATOM     23  H   LIG    1        1.382   0.739   2.894  0.00  0.00    +0.210 HD
ENDBRANCH   5  22
BRANCH  10  24
ATOM     24  C   LIG    1       -4.094  -0.414  -0.503  0.00  0.00    -0.010 C 
ATOM     25  C   LIG    1       -4.276  -0.153  -1.954  0.00  0.00    +0.008 C 
BRANCH  24  26
ATOM     26  C   LIG    1       -5.305   0.188   0.225  0.00  0.00    +0.014 C 
BRANCH  26  27
ATOM     27  C   LIG    1       -6.595  -0.334  -0.321  0.00  0.00    +0.121 C 
BRANCH  27  28
ATOM     28  C   LIG    1       -7.693   0.317   0.458  0.00  0.00    +0.305 C 
ATOM     29  O   LIG    1       -7.939  -0.107   1.616  0.00  0.00    -0.251 OA
BRANCH  28  30
ATOM     30  O   LIG    1       -8.448   1.357  -0.030  0.00  0.00    -0.481 OA
ATOM     31  H   LIG    1       -8.445   2.293   0.364  0.00  0.00    +0.295 HD
ENDBRANCH  28  30
ENDBRANCH  27  28
ENDBRANCH  26  27
ENDBRANCH  24  26
ENDBRANCH  10  24
BRANCH  16  32
ATOM     32  O   LIG    1        6.624   1.374  -0.631  0.00  0.00    -0.392 OA
ATOM     33  H   LIG    1        6.508   1.838   0.248  0.00  0.00    +0.210 HD
ENDBRANCH  16  32
TORSDOF 8
