REMARK  Name = molecules/ZXFQRFXLFWWKLX-UHFFFAOYSA-N.pdb
REMARK                            x       y       z     vdW  Elec       q    Type
REMARK                         _______ _______ _______ _____ _____    ______ ____
ROOT
ATOM      1  C   LIG    1       -1.406   0.351   0.435  0.00  0.00    +0.051 A 
ATOM      2  C   LIG    1       -2.393   0.602   1.365  0.00  0.00    +0.128 A 
ATOM      3  C   LIG    1       -2.155   0.622   2.737  0.00  0.00    +0.047 A 
ATOM      4  C   LIG    1       -0.865   0.377   3.144  0.00  0.00    +0.019 A 
ATOM      5  C   LIG    1        0.148   0.123   2.243  0.00  0.00    +0.065 A 
ATOM      6  C   LIG    1        1.442  -0.120   2.633  0.00  0.00    +0.196 A 
ATOM      7  O   LIG    1        1.711  -0.113   3.854  0.00  0.00    -0.287 OA
ATOM      8  C   LIG    1        2.440  -0.373   1.659  0.00  0.00    +0.040 A 
ATOM      9  C   LIG    1        3.805  -0.549   2.190  0.00  0.00    +0.051 C 
ATOM     10  C   LIG    1        2.120  -0.377   0.342  0.00  0.00    +0.142 A 
ATOM     11  O   LIG    1        0.837  -0.131   0.013  0.00  0.00    -0.454 OA
ATOM     12  C   LIG    1       -0.098   0.106   0.893  0.00  0.00    +0.147 A 
ENDROOT
BRANCH  10  13
ATOM     13  C   LIG    1        3.063  -0.623  -0.731  0.00  0.00    +0.018 A 
ATOM     14  C   LIG    1        4.242  -1.288  -0.659  0.00  0.00    +0.011 A 
ATOM     15  C   LIG    1        5.028  -1.506  -1.813  0.00  0.00    +0.001 A 
ATOM     16  C   LIG    1        4.625  -1.055  -3.047  0.00  0.00    +0.000 A 
ATOM     17  C   LIG    1        3.440  -0.385  -3.142  0.00  0.00    +0.001 A 
ATOM     18  C   LIG    1        2.704  -0.187  -2.019  0.00  0.00    +0.011 A 
ENDBRANCH  10  13
BRANCH   2  19
ATOM     19  O   LIG    1       -3.684   0.854   0.965  0.00  0.00    -0.495 OA
ATOM     20  C   LIG    1       -4.712   1.111   1.876  0.00  0.00    +0.277 C 
ENDBRANCH   2  19
BRANCH   1  21
ATOM     21  C   LIG    1       -1.622   0.356  -1.020  0.00  0.00    +0.126 C 
BRANCH  21  22
ATOM     22  N   LIG    1       -3.006   0.541  -1.386  0.00  0.00    -0.304 NA
ATOM     23  C   LIG    1       -3.734  -0.736  -1.243  0.00  0.00    +0.104 C 
ATOM     24  C   LIG    1       -3.061   0.766  -2.863  0.00  0.00    +0.104 C 
ENDBRANCH  21  22
ENDBRANCH   1  21
TORSDOF 4
