REMARK  Name = molecules/ZXFWVUHYOBPQHY-YUMQZZPRSA-N.pdb
REMARK                            x       y       z     vdW  Elec       q    Type
REMARK                         _______ _______ _______ _____ _____    ______ ____
ROOT
ATOM      1  N   LYS A  2        0.156  -0.411  -0.055  0.00  0.00    -0.301 N 
ATOM      2  C   UNK A  1        1.307   0.338   0.224  0.00  0.00    +0.231 C 
ATOM      3  O   UNK A  1        1.293   1.403   0.899  0.00  0.00    -0.274 OA
ATOM      4  H   LYS A  2        0.162  -1.282  -0.600  0.00  0.00    +0.150 HD
ENDROOT
BRANCH   1   5
ATOM      5  CA  LYS A  2       -1.148   0.093   0.478  0.00  0.00    +0.182 C 
BRANCH   5   6
ATOM      6  C   LYS A  2       -1.640  -1.017   1.308  0.00  0.00    +0.325 C 
ATOM      7  O   LYS A  2       -1.587  -2.203   0.872  0.00  0.00    -0.249 OA
BRANCH   6   8
ATOM      8  OXT LYS A  2       -2.160  -0.831   2.573  0.00  0.00    -0.479 OA
ATOM      9  HXT LYS A  2       -2.221   0.055   3.031  0.00  0.00    +0.295 HD
ENDBRANCH   6   8
ENDBRANCH   5   6
BRANCH   5  10
ATOM     10  CB  LYS A  2       -1.990   0.438  -0.699  0.00  0.00    +0.034 C 
BRANCH  10  11
ATOM     11  CG  LYS A  2       -3.334   0.975  -0.444  0.00  0.00    +0.004 C 
BRANCH  11  12
ATOM     12  CD  LYS A  2       -4.352   0.107   0.218  0.00  0.00    +0.015 C 
BRANCH  12  13
ATOM     13  CE  LYS A  2       -5.684   0.900   0.329  0.00  0.00    +0.077 C 
BRANCH  13  14
ATOM     14  NZ  LYS A  2       -6.621   0.010   0.975  0.00  0.00    -0.330 NA
ATOM     15  HZ1 LYS A  2       -6.143  -0.700   1.551  0.00  0.00    +0.118 HD
ATOM     16  HZ2 LYS A  2       -7.180  -0.430   0.181  0.00  0.00    +0.118 HD
ENDBRANCH  13  14
ENDBRANCH  12  13
ENDBRANCH  11  12
ENDBRANCH  10  11
ENDBRANCH   5  10
ENDBRANCH   1   5
BRANCH   2  17
ATOM     17  C   UNK A  1        2.626  -0.169  -0.319  0.00  0.00    +0.148 C 
BRANCH  17  18
ATOM     18  N   UNK A  1        2.381  -1.419  -0.958  0.00  0.00    -0.319 NA
ATOM     19  H   UNK A  1        2.658  -2.247  -0.411  0.00  0.00    +0.119 HD
ATOM     20  H   UNK A  1        2.558  -1.469  -1.973  0.00  0.00    +0.119 HD
ENDBRANCH  17  18
BRANCH  17  21
ATOM     21  C   UNK A  1        3.212   0.828  -1.260  0.00  0.00    +0.097 C 
BRANCH  21  22
ATOM     22  S   UNK A  1        4.750   0.305  -1.953  0.00  0.00    -0.147 S 
BRANCH  22  23
ATOM     23  C   UNK A  1        6.145   0.168  -0.858  0.00  0.00    +0.189 C 
BRANCH  23  24
ATOM     24  C   UNK A  1        6.152  -0.953   0.081  0.00  0.00    +0.315 C 
ATOM     25  O   UNK A  1        5.310  -1.862   0.076  0.00  0.00    -0.250 OA
BRANCH  24  26
ATOM     26  O   UNK A  1        7.157  -1.010   1.039  0.00  0.00    -0.480 OA
ATOM     27  H   UNK A  1        7.443  -0.171   1.561  0.00  0.00    +0.295 HD
ENDBRANCH  24  26
ENDBRANCH  23  24
ENDBRANCH  22  23
ENDBRANCH  21  22
ENDBRANCH  17  21
ENDBRANCH   2  17
TORSDOF 15
