REMARK  Name = molecules/ZXIBCJHYVWYIKI-PZJWPPBQSA-N.pdb
REMARK                            x       y       z     vdW  Elec       q    Type
REMARK                         _______ _______ _______ _____ _____    ______ ____
ROOT
ATOM      1  C   LIG    1       -0.682   0.026   0.268  0.00  0.00    +0.233 C 
ATOM      2  O   LIG    1       -0.441   0.355   1.445  0.00  0.00    -0.274 OA
ATOM      3  N   LIG    1        0.014  -1.059  -0.307  0.00  0.00    -0.289 N 
ATOM      4  C   LIG    1        1.047  -1.984   0.224  0.00  0.00    +0.163 C 
ATOM      5  C   LIG    1        1.447  -2.382  -1.142  0.00  0.00    +0.051 C 
ATOM      6  C   LIG    1        0.122  -1.788  -1.554  0.00  0.00    +0.111 C 
ENDROOT
BRANCH   4   7
ATOM      7  C   LIG    1        2.094  -1.256   0.993  0.00  0.00    +0.234 C 
ATOM      8  N   LIG    1        3.072  -1.977   1.714  0.00  0.00    -0.310 N 
ATOM      9  H   LIG    1        3.124  -3.014   1.757  0.00  0.00    +0.149 HD
ATOM     10  O   LIG    1        2.101  -0.011   0.995  0.00  0.00    -0.274 OA
BRANCH   8  11
ATOM     11  C   LIG    1        4.091  -1.234   2.459  0.00  0.00    +0.139 C 
BRANCH  11  12
ATOM     12  C   LIG    1        5.068  -0.767   1.442  0.00  0.00    -0.030 A 
ATOM     13  C   LIG    1        5.727   0.417   1.677  0.00  0.00    +0.006 A 
ATOM     14  C   LIG    1        6.637   0.864   0.740  0.00  0.00    +0.016 A 
ATOM     15  C   LIG    1        6.875   0.125  -0.415  0.00  0.00    +0.070 A 
ATOM     16  C   LIG    1        6.207  -1.056  -0.633  0.00  0.00    +0.016 A 
ATOM     17  C   LIG    1        5.284  -1.513   0.313  0.00  0.00    +0.006 A 
BRANCH  15  18
ATOM     18  C   LIG    1        7.837   0.636  -1.369  0.00  0.00    +0.348 C 
ATOM     19  N   LIG    1        8.123   0.030  -2.462  0.00  0.00    -0.095 NA
ATOM     20  H   LIG    1        7.709  -0.856  -2.758  0.00  0.00    +0.364 HD
BRANCH  18  21
ATOM     21  N   LIG    1        8.492   1.885  -1.063  0.00  0.00    -0.129 N 
ATOM     22  H   LIG    1        8.983   1.966  -0.171  0.00  0.00    +0.348 HD
BRANCH  21  23
ATOM     23  O   LIG    1        8.446   2.895  -1.932  0.00  0.00    -0.209 OA
ATOM     24  H   LIG    1        8.577   2.506  -2.855  0.00  0.00    +0.271 HD
ENDBRANCH  21  23
ENDBRANCH  18  21
ENDBRANCH  15  18
ENDBRANCH  11  12
ENDBRANCH   8  11
ENDBRANCH   4   7
BRANCH   1  25
ATOM     25  C   LIG    1       -1.727   0.860  -0.431  0.00  0.00    +0.144 C 
BRANCH  25  26
ATOM     26  C   LIG    1       -2.601   0.054  -1.324  0.00  0.00    +0.015 C 
ATOM     27  C   LIG    1       -3.373  -1.044  -0.719  0.00  0.00    +0.005 C 
ATOM     28  C   LIG    1       -4.510  -1.565  -1.528  0.00  0.00    +0.000 C 
ATOM     29  C   LIG    1       -5.303  -0.522  -2.264  0.00  0.00    +0.000 C 
ATOM     30  C   LIG    1       -4.324   0.222  -3.140  0.00  0.00    +0.000 C 
ATOM     31  C   LIG    1       -3.348   0.952  -2.268  0.00  0.00    +0.005 C 
ENDBRANCH  25  26
BRANCH  25  32
ATOM     32  N   LIG    1       -2.181   1.924   0.316  0.00  0.00    -0.296 NA
ATOM     33  H   LIG    1       -2.115   2.879  -0.173  0.00  0.00    +0.123 HD
BRANCH  32  34
ATOM     34  C   LIG    1       -2.819   1.980   1.510  0.00  0.00    +0.203 C 
BRANCH  34  35
ATOM     35  C   LIG    1       -4.234   1.621   1.614  0.00  0.00    +0.321 C 
ATOM     36  O   LIG    1       -4.915   1.421   0.598  0.00  0.00    -0.249 OA
BRANCH  35  37
ATOM     37  O   LIG    1       -4.907   1.480   2.822  0.00  0.00    -0.464 OA
BRANCH  37  38
ATOM     38  C   LIG    1       -6.237   1.146   3.009  0.00  0.00    +0.229 C 
ATOM     39  C   LIG    1       -7.229   2.086   2.415  0.00  0.00    +0.048 C 
ENDBRANCH  37  38
ENDBRANCH  35  37
ENDBRANCH  34  35
ENDBRANCH  32  34
ENDBRANCH  25  32
ENDBRANCH   1  25
TORSDOF 13
