REMARK  Name = molecules/ZXNRTKGTQJPIJK-UHFFFAOYSA-N.pdb
REMARK                            x       y       z     vdW  Elec       q    Type
REMARK                         _______ _______ _______ _____ _____    ______ ____
ROOT
ATOM      1  C   LIG    1       -0.951   0.516   1.471  0.00  0.00    +0.253 C 
ATOM      2  O   LIG    1       -1.183   0.678   2.737  0.00  0.00    -0.270 OA
ATOM      3  N   LIG    1       -2.046   0.534   0.633  0.00  0.00    -0.238 N 
ATOM      4  C   LIG    1       -3.468   0.583   1.119  0.00  0.00    +0.117 C 
ATOM      5  C   LIG    1       -4.008  -0.524   0.247  0.00  0.00    +0.029 C 
ATOM      6  C   LIG    1       -3.426  -0.223  -1.109  0.00  0.00    +0.098 C 
ATOM      7  C   LIG    1       -2.241   0.604  -0.775  0.00  0.00    +0.222 C 
ATOM      8  O   LIG    1       -1.561   1.239  -1.614  0.00  0.00    -0.275 OA
ENDROOT
BRANCH   1   9
ATOM      9  C   LIG    1        0.424   0.335   1.061  0.00  0.00    +0.038 A 
ATOM     10  C   LIG    1        1.404   0.647   2.003  0.00  0.00    +0.016 A 
ATOM     11  C   LIG    1        2.720   0.447   1.709  0.00  0.00    +0.046 A 
ATOM     12  C   LIG    1        3.117  -0.062   0.493  0.00  0.00    +0.120 A 
ATOM     13  C   LIG    1        2.155  -0.373  -0.438  0.00  0.00    +0.046 A 
ATOM     14  C   LIG    1        0.807  -0.172  -0.145  0.00  0.00    +0.016 A 
BRANCH  12  15
ATOM     15  O   LIG    1        4.459  -0.245   0.243  0.00  0.00    -0.495 OA
ATOM     16  C   LIG    1        4.928  -0.759  -0.971  0.00  0.00    +0.277 C 
ENDBRANCH  12  15
ENDBRANCH   1   9
TORSDOF 2
