REMARK  Name = molecules/ZXSWTMLNIIZPET-ZOFHRBRSSA-N.pdb
REMARK                            x       y       z     vdW  Elec       q    Type
REMARK                         _______ _______ _______ _____ _____    ______ ____
ROOT
ATOM      1  C   LIG    1       -1.756  -1.440   1.151  0.00  0.00    +0.014 C 
ATOM      2  C   LIG    1       -1.942  -0.580  -0.073  0.00  0.00    -0.000 C 
ATOM      3  C   LIG    1       -1.316   0.810   0.126  0.00  0.00    +0.001 C 
ATOM      4  C   LIG    1       -2.138   1.287   1.267  0.00  0.00    +0.007 C 
ATOM      5  C   LIG    1       -3.542   0.843   0.885  0.00  0.00    +0.035 C 
ATOM      6  C   LIG    1        0.154   0.693   0.391  0.00  0.00    -0.003 C 
ATOM      7  C   LIG    1        0.772   2.060   0.228  0.00  0.00    +0.008 C 
ATOM      8  C   LIG    1        2.053   2.068  -0.554  0.00  0.00    +0.031 C 
ATOM      9  C   LIG    1        2.919   0.912  -0.240  0.00  0.00    -0.063 C 
ATOM     10  C   LIG    1        2.261  -0.414  -0.016  0.00  0.00    +0.019 C 
ATOM     11  C   LIG    1        3.067  -1.434  -0.753  0.00  0.00    +0.016 C 
ATOM     12  C   LIG    1        4.419  -1.529  -0.121  0.00  0.00    +0.079 C 
ATOM     13  C   LIG    1        5.024  -0.207   0.155  0.00  0.00    +0.156 C 
ATOM     14  O   LIG    1        6.162  -0.107   0.630  0.00  0.00    -0.293 OA
ATOM     15  C   LIG    1        4.223   0.985  -0.154  0.00  0.00    +0.045 C 
ATOM     16  C   LIG    1        0.851  -0.250  -0.530  0.00  0.00    -0.000 C 
ATOM     17  C   LIG    1        0.139  -1.537  -0.771  0.00  0.00    +0.005 C 
ATOM     18  C   LIG    1       -3.363  -0.206  -0.221  0.00  0.00    +0.069 C 
ATOM     19  C   LIG    1       -3.731   0.364  -1.556  0.00  0.00    +0.042 C 
ATOM     20  C   LIG    1       -1.275  -1.175  -1.254  0.00  0.00    +0.010 C 
ENDROOT
BRANCH  18  21
ATOM     21  O   LIG    1       -4.234  -1.267   0.086  0.00  0.00    -0.388 OA
ATOM     22  H   LIG    1       -5.152  -0.883   0.155  0.00  0.00    +0.210 HD
ENDBRANCH  18  21
TORSDOF 1
