REMARK  Name = molecules/ZXUMUPVQYAFTLF-SNVBAGLBSA-N.pdb
REMARK                            x       y       z     vdW  Elec       q    Type
REMARK                         _______ _______ _______ _____ _____    ______ ____
ROOT
ATOM      1  C   LIG    1       -0.464  -0.934   0.508  0.00  0.00    -0.021 A 
ATOM      2  C   LIG    1       -1.573  -0.135   0.361  0.00  0.00    +0.003 A 
ATOM      3  C   LIG    1       -1.816   1.219   0.568  0.00  0.00    +0.010 A 
ATOM      4  C   LIG    1       -3.060   1.744   0.329  0.00  0.00    +0.001 A 
ATOM      5  C   LIG    1       -4.111   0.960  -0.123  0.00  0.00    +0.002 A 
ATOM      6  C   LIG    1       -3.846  -0.379  -0.321  0.00  0.00    +0.026 A 
ATOM      7  C   LIG    1       -2.602  -0.938  -0.088  0.00  0.00    +0.047 A 
ATOM      8  N   LIG    1       -2.149  -2.202  -0.217  0.00  0.00    -0.360 N 
ATOM      9  H   LIG    1       -2.693  -3.043  -0.539  0.00  0.00    +0.165 HD
ATOM     10  C   LIG    1       -0.846  -2.205   0.145  0.00  0.00    +0.087 A 
ENDROOT
BRANCH   1  11
ATOM     11  C   LIG    1        0.865  -0.522   0.960  0.00  0.00    +0.055 C 
BRANCH  11  12
ATOM     12  C   LIG    1        1.629   0.226  -0.143  0.00  0.00    +0.055 C 
BRANCH  12  13
ATOM     13  N   LIG    1        1.754  -0.684  -1.261  0.00  0.00    -0.327 NA
ATOM     14  H   LIG    1        2.668  -0.659  -1.738  0.00  0.00    +0.118 HD
ATOM     15  H   LIG    1        0.918  -0.628  -1.878  0.00  0.00    +0.118 HD
ENDBRANCH  12  13
BRANCH  12  16
ATOM     16  C   LIG    1        3.005   0.471   0.433  0.00  0.00    +0.015 C 
ATOM     17  C   LIG    1        3.935   1.203  -0.467  0.00  0.00    +0.005 C 
ENDBRANCH  12  16
ENDBRANCH  11  12
ENDBRANCH   1  11
TORSDOF 4
