REMARK  Name = molecules/ZZORFUFYDOWNEF-UHFFFAOYSA-N.pdb
REMARK                            x       y       z     vdW  Elec       q    Type
REMARK                         _______ _______ _______ _____ _____    ______ ____
ROOT
ATOM      1  N   LIG    1        0.324   0.133  -2.669  0.00  0.00    -0.199 N 
ATOM      2  H   LIG    1        0.491   0.765  -3.495  0.00  0.00    +0.175 HD
ENDROOT
BRANCH   1   3
ATOM      3  C   LIG    1       -0.706   0.402  -1.726  0.00  0.00    +0.148 A 
ATOM      4  N   LIG    1       -0.945  -0.381  -0.667  0.00  0.00    -0.178 NA
ATOM      5  C   LIG    1       -1.909  -0.157   0.242  0.00  0.00    +0.323 A 
ATOM      6  N   LIG    1       -2.678   0.932   0.064  0.00  0.00    -0.160 NA
ATOM      7  C   LIG    1       -2.480   1.759  -0.989  0.00  0.00    +0.222 A 
ATOM      8  C   LIG    1       -1.495   1.536  -1.925  0.00  0.00    +0.112 A 
BRANCH   5   9
ATOM      9  O   LIG    1       -2.100  -1.014   1.319  0.00  0.00    -0.466 OA
ATOM     10  C   LIG    1       -3.112  -0.778   2.272  0.00  0.00    +0.280 C 
ENDBRANCH   5   9
BRANCH   7  11
ATOM     11  O   LIG    1       -3.282   2.874  -1.155  0.00  0.00    -0.479 OA
ATOM     12  C   LIG    1       -4.303   3.163  -0.243  0.00  0.00    +0.279 C 
ENDBRANCH   7  11
ENDBRANCH   1   3
BRANCH   1  13
ATOM     13  S   LIG    1        1.307  -1.256  -2.441  0.00  0.00    +0.073 S 
ATOM     14  O   LIG    1        0.385  -2.446  -2.432  0.00  0.00    -0.150 OA
ATOM     15  O   LIG    1        2.251  -1.382  -3.615  0.00  0.00    -0.150 OA
BRANCH  13  16
ATOM     16  C   LIG    1        2.189  -1.188  -0.959  0.00  0.00    +0.109 A 
ATOM     17  C   LIG    1        1.730  -1.793   0.182  0.00  0.00    +0.030 A 
ATOM     18  C   LIG    1        2.491  -1.707   1.335  0.00  0.00    +0.024 A 
ATOM     19  C   LIG    1        3.707  -1.029   1.387  0.00  0.00    +0.025 A 
ATOM     20  C   LIG    1        4.154  -0.423   0.219  0.00  0.00    +0.024 A 
ATOM     21  C   LIG    1        3.398  -0.507  -0.928  0.00  0.00    +0.030 A 
BRANCH  19  22
ATOM     22  N   LIG    1        4.465  -0.960   2.591  0.00  0.00    -0.358 N 
ATOM     23  H   LIG    1        4.069  -1.421   3.435  0.00  0.00    +0.142 HD
ATOM     24  H   LIG    1        5.367  -0.457   2.564  0.00  0.00    +0.142 HD
ENDBRANCH  19  22
ENDBRANCH  13  16
ENDBRANCH   1  13
TORSDOF 6
