REMARK  Name = molecules/ZZUFCTLCJUWOSV-UHFFFAOYSA-N.pdb
REMARK                            x       y       z     vdW  Elec       q    Type
REMARK                         _______ _______ _______ _____ _____    ______ ____
ROOT
ATOM      1  C   LIG    1        1.143   0.486   0.675  0.00  0.00    +0.082 A 
ATOM      2  C   LIG    1        2.507   0.244   0.373  0.00  0.00    +0.046 A 
ATOM      3  C   LIG    1        2.895  -0.453  -0.730  0.00  0.00    +0.124 A 
ATOM      4  C   LIG    1        1.916  -0.933  -1.571  0.00  0.00    +0.069 A 
ATOM      5  C   LIG    1        0.577  -0.722  -1.318  0.00  0.00    +0.045 A 
ATOM      6 CL   LIG    1        2.398  -1.830  -2.992  0.00  0.00    -0.081 Cl
ATOM      7  C   LIG    1        0.197   0.006  -0.164  0.00  0.00    +0.043 A 
ENDROOT
BRANCH   3   8
ATOM      8  S   LIG    1        4.563  -0.765  -1.126  0.00  0.00    +0.057 S 
ATOM      9  O   LIG    1        4.739  -2.257  -1.181  0.00  0.00    -0.153 OA
ATOM     10  O   LIG    1        4.797  -0.177  -2.509  0.00  0.00    -0.153 OA
BRANCH   8  11
ATOM     11  N   LIG    1        5.636  -0.098   0.026  0.00  0.00    -0.203 NA
ATOM     12  H   LIG    1        6.402  -0.779   0.190  0.00  0.00    +0.144 HD
ATOM     13  H   LIG    1        6.004   0.825  -0.319  0.00  0.00    +0.144 HD
ENDBRANCH   8  11
ENDBRANCH   3   8
BRANCH   1  14
ATOM     14  C   LIG    1        0.830   1.234   1.866  0.00  0.00    +0.339 C 
ATOM     15  O   LIG    1        1.792   1.661   2.621  0.00  0.00    -0.245 OA
BRANCH  14  16
ATOM     16  O   LIG    1       -0.412   1.573   2.333  0.00  0.00    -0.477 OA
ATOM     17  H   LIG    1       -0.759   2.530   2.275  0.00  0.00    +0.295 HD
ENDBRANCH  14  16
ENDBRANCH   1  14
BRANCH   7  18
ATOM     18  N   LIG    1       -1.192   0.189   0.040  0.00  0.00    -0.336 N 
ATOM     19  H   LIG    1       -1.536   0.706   0.855  0.00  0.00    +0.147 HD
BRANCH  18  20
ATOM     20  C   LIG    1       -2.162  -0.359  -0.911  0.00  0.00    +0.176 C 
BRANCH  20  21
ATOM     21  C   LIG    1       -3.526  -0.013  -0.440  0.00  0.00    +0.122 A 
ATOM     22  C   LIG    1       -4.311  -0.781   0.410  0.00  0.00    +0.046 A 
ATOM     23  C   LIG    1       -5.487  -0.107   0.593  0.00  0.00    +0.041 A 
ATOM     24  C   LIG    1       -5.389   1.048  -0.146  0.00  0.00    +0.195 A 
ATOM     25  O   LIG    1       -4.227   1.052  -0.727  0.00  0.00    -0.466 OA
ENDBRANCH  20  21
ENDBRANCH  18  20
ENDBRANCH   7  18
TORSDOF 7
