REMARK  Name = molecules/ZZVUWRFHKOJYTH-UHFFFAOYSA-N.pdb
REMARK                            x       y       z     vdW  Elec       q    Type
REMARK                         _______ _______ _______ _____ _____    ______ ____
ROOT
ATOM      1  C   LIG    1       -0.526   0.497   0.357  0.00  0.00    +0.178 C 
ENDROOT
BRANCH   1   2
ATOM      2  C   LIG    1       -1.271  -0.770   0.573  0.00  0.00    -0.015 A 
ATOM      3  C   LIG    1       -1.687  -1.087   1.845  0.00  0.00    +0.006 A 
ATOM      4  C   LIG    1       -2.380  -2.229   2.153  0.00  0.00    +0.000 A 
ATOM      5  C   LIG    1       -2.683  -3.119   1.136  0.00  0.00    +0.000 A 
ATOM      6  C   LIG    1       -2.279  -2.823  -0.135  0.00  0.00    +0.000 A 
ATOM      7  C   LIG    1       -1.575  -1.657  -0.431  0.00  0.00    +0.006 A 
ENDBRANCH   1   2
BRANCH   1   8
ATOM      8  C   LIG    1       -1.431   1.567  -0.155  0.00  0.00    -0.015 A 
ATOM      9  C   LIG    1       -2.816   1.385  -0.176  0.00  0.00    +0.006 A 
ATOM     10  C   LIG    1       -3.646   2.380  -0.650  0.00  0.00    +0.000 A 
ATOM     11  C   LIG    1       -3.148   3.580  -1.118  0.00  0.00    +0.000 A 
ATOM     12  C   LIG    1       -1.793   3.770  -1.102  0.00  0.00    +0.000 A 
ATOM     13  C   LIG    1       -0.966   2.772  -0.627  0.00  0.00    +0.006 A 
ENDBRANCH   1   8
BRANCH   1  14
ATOM     14  O   LIG    1        0.577   0.314  -0.468  0.00  0.00    -0.366 OA
BRANCH  14  15
ATOM     15  C   LIG    1        1.718   0.603   0.256  0.00  0.00    +0.176 C 
BRANCH  15  16
ATOM     16  C   LIG    1        2.980   0.439  -0.546  0.00  0.00    +0.112 C 
BRANCH  16  17
ATOM     17  N   LIG    1        3.179  -0.885  -1.048  0.00  0.00    -0.306 NA
ATOM     18  C   LIG    1        3.269  -1.891  -0.032  0.00  0.00    +0.104 C 
ATOM     19  C   LIG    1        4.425  -0.895  -1.795  0.00  0.00    +0.104 C 
ENDBRANCH  16  17
ENDBRANCH  15  16
ENDBRANCH  14  15
ENDBRANCH   1  14
TORSDOF 6
